version 2
run Toy_Synchronized-0-20260218-17:41:02-21544
attr configname Toy_Synchronized
attr datetime 20260218-17:41:02
attr experiment Toy_Synchronized
attr inifile omnetpp.ini
attr iterationvars ""
attr iterationvarsf ""
attr measurement ""
attr network ToyEVDoSScenario
attr processid 21544
attr repetition 0
attr replication #0
attr resultdir results
attr runnumber 0
attr seedset 0
param *.cs[*].wlan[0].mac.queue.packetCapacity 10
param *.cs[*].wlan[0].mac.queue.typename "\"DropTailQueue\""
param *.ev[*].app[0].energyPerMeter 0.1Wh
param *.ev[*].app[0].batteryCapacity 200Wh
param *.ev[0].app[0].isAttacker true
param *.ev[0].app[0].targetType "\"CS\""
param *.ev[0].app[0].targetAddress "\"cs[0]\""
param *.ev[0].app[0].attackStartTime 10s
param *.ev[0].app[0].attackDuration 60s
param *.ev[0].app[0].packetInterval 0.001s
param *.ev[0].app[0].packetSize 1024B
param *.ev[0].app[0].initialSoC 0.80
param *.ev[0].app[0].sumoColor "\"red\""
param *.ev[0].app[0].chargingRange 300m
param *.ev[0].app[0].physicalChargingRange 50m
param *.ev[0].app[0].csEdgeId "\"B1B2\""
param *.ev[1].app[0].isAttacker false
param *.ev[1].app[0].initialSoC 0.30
param *.ev[1].app[0].packetInterval 1s
param *.ev[1].app[0].chargingRange 300m
param *.ev[1].app[0].physicalChargingRange 50m
param *.ev[1].app[0].csEdgeId "\"B1B2\""
param *.ev[1].app[0].sumoColor "\"yellow\""
param *.radioMedium.neighborCache.typename "\"GridNeighborCache\""
param *.radioMedium.neighborCache.cellSizeX 300m
param *.radioMedium.neighborCache.cellSizeY 300m
param *.radioMedium.neighborCache.cellSizeZ 100m
param *.radioMedium.pathLoss.typename "\"FreeSpacePathLoss\""
param *.veinsManager.firstStepAt 0s
param *.veinsManager.roiRects "\"\""
param *.veinsManager.moduleType "\"evattack.veins_inet.VeinsInetEVChargingCar\""
param *.veinsManager.moduleName "\"ev\""
param *.ev[*].numApps 1
param *.ev[*].app[0].typename "\"VeinsInetEVChargingApp\""
param *.ev[*].app[0].interface "\"wlan0\""
param *.ev[*].app[0].interfaceTableModule "\"^.interfaceTable\""
param *.ev[*].mobility.typename "\"VeinsInetMobility\""
param *.ev[*].ipv4.configurator.typename "\"HostAutoConfigurator\""
param *.ev[*].ipv4.configurator.interfaces "\"wlan0\""
param *.ev[*].wlan[0].typename "\"Ieee80211Interface\""
param *.ev[*].wlan[0].radio.typename "\"Ieee80211ScalarRadio\""
param *.ev[*].wlan[0].radio.bandName "\"5.9 GHz\""
param *.ev[*].wlan[0].radio.channelNumber 3
param *.ev[*].wlan[0].radio.transmitter.power 20mW
param *.ev[*].wlan[0].radio.receiver.sensitivity -89dBm
param *.ev[*].wlan[0].radio.receiver.snirThreshold 4dB
param *.ev[*].wlan[0].mgmt.typename "\"Ieee80211MgmtAdhoc\""
param *.ev[*].wlan[0].mac.dcf.channelAccess.cwMin 15
param *.ev[*].wlan[0].mac.dcf.channelAccess.cwMax 1023
param *.ev[*].wlan[0].radio.displayCommunicationRange true
param *.ev[*].app[0].batteryCapacity 200Wh
param *.ev[*].app[0].initialSoC 0.8
param *.ev[*].app[0].energyPerMeter 0.05Wh
param *.ev[*].app[0].chargingPowerW 7200W
param *.ev[*].app[0].socThreshold 0.2
param *.ev[*].app[0].chargingRange 300m
param *.ev[*].app[0].physicalChargingRange 15m
param *.ev[*].app[0].csEdgeId "\"B1B2\""
param *.ev[*].app[0].isAttacker false
param *.ev[*].app[0].sumoColor "\"yellow\""
param *.cs[*].numApps 1
param *.cs[*].app[0].typename "\"VeinsInetCSChargingApp\""
param *.cs[*].app[0].interfaceTableModule "\"^.interfaceTable\""
param *.cs[*].app[0].maxSlots 1
param *.cs[*].app[0].csBatteryCapacity 50000Wh
param *.cs[*].app[0].initialCSSoC 1.0
param *.cs[*].app[0].chargingPowerW 7200W
param *.cs[*].app[0].gridRechargePowerW 10000W
param *.cs[*].ipv4.configurator.typename "\"HostAutoConfigurator\""
param *.cs[*].ipv4.configurator.interfaces "\"wlan0\""
param *.cs[*].mobility.initFromDisplayString false
param *.cs[*].numWlanInterfaces 1
param *.cs[*].wlan[0].typename "\"Ieee80211Interface\""
param *.cs[*].wlan[0].radio.typename "\"Ieee80211ScalarRadio\""
param *.cs[*].wlan[0].radio.bandName "\"5.9 GHz\""
param *.cs[*].wlan[0].radio.channelNumber 3
param *.cs[*].wlan[0].radio.transmitter.power 20mW
param *.cs[*].wlan[0].radio.receiver.sensitivity -89dBm
param *.cs[*].wlan[0].mgmt.typename "\"Ieee80211MgmtAdhoc\""
param *.cs[*].wlan[0].mac.dcf.channelAccess.cwMin 15
param *.cs[*].wlan[0].mac.dcf.channelAccess.cwMax 1023
param *.cs[*].wlan[0].radio.displayCommunicationRange true
param *.rsu[*].numApps 1
param *.rsu[*].app[0].typename "\"VeinsInetReceiverApp\""
param *.rsu[*].ipv4.configurator.typename "\"HostAutoConfigurator\""
param *.rsu[*].ipv4.configurator.interfaces "\"wlan0\""
param *.rsu[*].mobility.initFromDisplayString false
param *.rsu[*].numWlanInterfaces 1
param *.rsu[*].wlan[0].typename "\"Ieee80211Interface\""
param *.rsu[*].wlan[0].radio.typename "\"Ieee80211ScalarRadio\""
param *.rsu[*].wlan[0].radio.bandName "\"5.9 GHz\""
param *.rsu[*].wlan[0].radio.channelNumber 3
param *.rsu[*].wlan[0].radio.transmitter.power 200mW
param *.rsu[*].wlan[0].radio.receiver.sensitivity -89dBm
param *.rsu[*].wlan[0].mgmt.typename "\"Ieee80211MgmtAdhoc\""
param *.rsu[*].wlan[0].mac.dcf.channelAccess.cwMin 15
param *.rsu[*].wlan[0].mac.dcf.channelAccess.cwMax 1023
param *.rsu[*].wlan[0].radio.displayCommunicationRange true
param **.constraintAreaMinX -10m
param **.constraintAreaMinY -10m
param **.constraintAreaMinZ 0m
param **.constraintAreaMaxX 500m
param **.constraintAreaMaxY 500m
param **.constraintAreaMaxZ 100m
param *.veinsManager.launchConfig "xmldoc(\"toy.launchd.xml\")"
param *.cs[0].mobility.typename "\"StationaryMobility\""
param *.cs[0].mobility.initialX 200m
param *.cs[0].mobility.initialY 200m
param *.cs[0].mobility.initialZ 0m
param *.rsu[0].mobility.typename "\"StationaryMobility\""
param *.rsu[0].mobility.initialX 200m
param *.rsu[0].mobility.initialY 300m
param *.rsu[0].mobility.initialZ 10m
param *.visualizer.typename "\"IntegratedCanvasVisualizer\""
param *.visualizer.*.displayDefaults false
param *.veinsManager.seed 0
param **.constraintAreaMinX 0m
param **.constraintAreaMinY 0m
param **.constraintAreaMinZ 0m
param **.constraintAreaMaxX 13640m
param **.constraintAreaMaxY 11500m
param **.constraintAreaMaxZ 50m
param *.visualizer.*.mobilityVisualizer.displayMobility false
param *.visualizer.*.mobilityVisualizer.displayPositions false
param *.visualizer.*.mediumVisualizer.displaySignals false
param *.visualizer.*.mediumVisualizer.displayTransmissions false
param *.visualizer.*.mediumVisualizer.displayReceptions false
param *.visualizer.*.dataLinkVisualizer.displayLinks false
param *.visualizer.*.networkRouteVisualizer.displayRoutes false
param *.visualizer.*.interfaceTableVisualizer.displayInterfaceTables false
param *.visualizer.*.packetDropVisualizer.displayPacketDrops false
param *.veinsManager.updateInterval 0.1s
param *.veinsManager.host "\"localhost\""
param *.veinsManager.port 9999
param *.veinsManager.autoShutdown true
param *.veinsManager.launchConfig "xmldoc(\"luxembourg.launchd.xml\")"
param *.veinsManager.moduleType "\"evattack.veins_inet.VeinsInetEVCar\""
param *.veinsManager.moduleName "\"ev\""
param *.veinsManager.roiRects "\"2300,5400-6300,6300\""
param *.veinsManager.firstStepAt 7h
param *.configurator.config "xmldoc(\"config.xml\")"
param *.configurator.addStaticRoutes false
param *.configurator.addDefaultRoutes false
param *.configurator.addSubnetRoutes false
param *.configurator.addDirectRoutes false
param *.configurator.optimizeRoutes false
param *.radioMedium.mediumLimitCache.carrierFrequency 5.9GHz
param *.radioMedium.pathLoss.typename "\"TwoRayInterference\""
param *.radioMedium.mediumLimitCache.maxCommunicationRange 500m
param *.radioMedium.mediumLimitCache.maxInterferenceRange 750m
param *.ev[*].numApps 1
param *.ev[*].app[0].typename "\"VeinsInetEVDoSApplication\""
param *.ev[*].app[0].interfaceTableModule "\"^.interfaceTable\""
param *.ev[*].app[0].interface "\"wlan0\""
param *.ev[*].mobility.typename "\"VeinsInetMobility\""
param *.ev[*].ipv4.configurator.typename "\"HostAutoConfigurator\""
param *.ev[*].ipv4.configurator.interfaces "\"wlan0\""
param *.ev[*].wlan[0].typename "\"Ieee80211Interface\""
param *.ev[*].wlan[0].radio.typename "\"Ieee80211ScalarRadio\""
param *.ev[*].wlan[0].radio.bandName "\"5.9 GHz\""
param *.ev[*].wlan[0].radio.channelNumber 3
param *.ev[*].wlan[0].radio.transmitter.power 20mW
param *.ev[*].wlan[0].radio.receiver.sensitivity -89dBm
param *.ev[*].wlan[0].radio.receiver.snirThreshold 4dB
param *.ev[*].wlan[0].mgmt.typename "\"Ieee80211MgmtAdhoc\""
param *.ev[*].wlan[0].mac.dcf.channelAccess.cwMin 15
param *.ev[*].wlan[0].mac.dcf.channelAccess.cwMax 1023
param *.ev[*].wlan[0].radio.displayCommunicationRange false
param *.ev[*].app[0].isAttacker false
param *.cs[*].numApps 1
param *.cs[*].app[0].typename "\"VeinsInetReceiverApp\""
param *.cs[*].ipv4.configurator.typename "\"HostAutoConfigurator\""
param *.cs[*].ipv4.configurator.interfaces "\"wlan0\""
param *.cs[*].mobility.initFromDisplayString false
param *.cs[0].mobility.typename "\"StationaryMobility\""
param *.cs[0].mobility.initialX 3200m
param *.cs[0].mobility.initialY 5700m
param *.cs[0].mobility.initialZ 0m
param *.cs[1].mobility.typename "\"StationaryMobility\""
param *.cs[1].mobility.initialX 4500m
param *.cs[1].mobility.initialY 5900m
param *.cs[1].mobility.initialZ 0m
param *.cs[2].mobility.typename "\"StationaryMobility\""
param *.cs[2].mobility.initialX 5800m
param *.cs[2].mobility.initialY 5600m
param *.cs[2].mobility.initialZ 0m
param *.cs[*].numWlanInterfaces 1
param *.cs[*].wlan[0].typename "\"Ieee80211Interface\""
param *.cs[*].wlan[0].radio.typename "\"Ieee80211ScalarRadio\""
param *.cs[*].wlan[0].radio.bandName "\"5.9 GHz\""
param *.cs[*].wlan[0].radio.channelNumber 3
param *.cs[*].wlan[0].radio.transmitter.power 20mW
param *.cs[*].wlan[0].radio.receiver.sensitivity -89dBm
param *.cs[*].wlan[0].mgmt.typename "\"Ieee80211MgmtAdhoc\""
param *.cs[*].wlan[0].mac.dcf.channelAccess.cwMin 15
param *.cs[*].wlan[0].mac.dcf.channelAccess.cwMax 1023
param *.cs[*].wlan[0].radio.displayCommunicationRange false
param *.rsu[*].numApps 1
param *.rsu[*].app[0].typename "\"VeinsInetReceiverApp\""
param *.rsu[*].ipv4.configurator.typename "\"HostAutoConfigurator\""
param *.rsu[*].ipv4.configurator.interfaces "\"wlan0\""
param *.rsu[*].mobility.initFromDisplayString false
param *.rsu[0].mobility.typename "\"StationaryMobility\""
param *.rsu[0].mobility.initialX 2800m
param *.rsu[0].mobility.initialY 5500m
param *.rsu[0].mobility.initialZ 10m
param *.rsu[1].mobility.typename "\"StationaryMobility\""
param *.rsu[1].mobility.initialX 3800m
param *.rsu[1].mobility.initialY 5800m
param *.rsu[1].mobility.initialZ 10m
param *.rsu[2].mobility.typename "\"StationaryMobility\""
param *.rsu[2].mobility.initialX 4800m
param *.rsu[2].mobility.initialY 6000m
param *.rsu[2].mobility.initialZ 10m
param *.rsu[3].mobility.typename "\"StationaryMobility\""
param *.rsu[3].mobility.initialX 5500m
param *.rsu[3].mobility.initialY 5800m
param *.rsu[3].mobility.initialZ 10m
param *.rsu[4].mobility.typename "\"StationaryMobility\""
param *.rsu[4].mobility.initialX 6000m
param *.rsu[4].mobility.initialY 6100m
param *.rsu[4].mobility.initialZ 10m
param *.rsu[*].numWlanInterfaces 1
param *.rsu[*].wlan[0].typename "\"Ieee80211Interface\""
param *.rsu[*].wlan[0].radio.typename "\"Ieee80211ScalarRadio\""
param *.rsu[*].wlan[0].radio.bandName "\"5.9 GHz\""
param *.rsu[*].wlan[0].radio.channelNumber 3
param *.rsu[*].wlan[0].radio.transmitter.power 200mW
param *.rsu[*].wlan[0].radio.receiver.sensitivity -89dBm
param *.rsu[*].wlan[0].mgmt.typename "\"Ieee80211MgmtAdhoc\""
param *.rsu[*].wlan[0].mac.dcf.channelAccess.cwMin 15
param *.rsu[*].wlan[0].mac.dcf.channelAccess.cwMax 1023
param *.rsu[*].wlan[0].radio.displayCommunicationRange false

scalar ToyEVDoSScenario.ev[1].lo[0].lo rcvdPkFromHl:count 337
attr interpolationmode none
attr source packetReceivedFromUpper
attr title "packets received from higher layer, count"
scalar ToyEVDoSScenario.ev[1].lo[0].lo rcvdPkFromHl:sum(packetBytes) 111059
attr interpolationmode none
attr source packetReceivedFromUpper
attr title "packets received from higher layer, sum(packetBytes)"
scalar ToyEVDoSScenario.ev[1].lo[0].lo passedUpPk:count 337
attr interpolationmode none
attr source packetSentToUpper
attr title "packets passed to higher layer, count"
scalar ToyEVDoSScenario.ev[1].lo[0].lo passedUpPk:sum(packetBytes) 111059
attr interpolationmode none
attr source packetSentToUpper
attr title "packets passed to higher layer, sum(packetBytes)"
scalar ToyEVDoSScenario.ev[1].wlan[0].mac.dcf.channelAccess.pendingQueue packetPopped:count 337
attr interpolationmode none
attr title "packet popped, count"
scalar ToyEVDoSScenario.ev[1].wlan[0].mac.dcf.channelAccess.pendingQueue packetPopped:sum(packetBytes) 123191
attr interpolationmode none
attr title "packet popped, sum(packetBytes)"
statistic ToyEVDoSScenario.ev[1].wlan[0].mac.dcf.channelAccess.pendingQueue queueingTime:histogram
field count 337
field mean 2.5497170522255e-005
field stddev 0.00010225017367657
field min 0
field max 0.000720139531
field sum 0.008592546466
field sqrsum 3.7319985561388e-006
attr interpolationmode none
attr source queueingTime(packetPopped)
attr title "queueing times, histogram"
attr unit s
bin	-inf	0
bin	0	311
bin	2e-005	1
bin	4e-005	1
bin	6e-005	2
bin	8e-005	0
bin	0.0001	1
bin	0.00012	1
bin	0.00014	0
bin	0.00016	1
bin	0.00018	0
bin	0.0002	0
bin	0.00022	2
bin	0.00024	0
bin	0.00026	0
bin	0.00028	2
bin	0.0003	0
bin	0.00032	2
bin	0.00034	2
bin	0.00036	1
bin	0.00038	1
bin	0.0004	1
bin	0.00042	0
bin	0.00044	1
bin	0.00046	1
bin	0.00048	1
bin	0.0005	2
bin	0.00052	0
bin	0.00054	0
bin	0.00056	0
bin	0.00058	1
bin	0.0006	0
bin	0.00062	0
bin	0.00064	1
bin	0.00066	0
bin	0.00068	0
bin	0.0007	0
bin	0.00072	1
bin	0.00074	0
bin	0.00076	0
bin	0.00078	0
bin	0.0008	0
bin	0.00082	0
bin	0.00084	0
bin	0.00086	0
bin	0.00088	0
bin	0.0009	0
bin	0.00092	0
scalar ToyEVDoSScenario.ev[1].wlan[0].mac.dcf.channelAccess.pendingQueue queueLength:max 1
attr interpolationmode sample-hold
attr source "count(packetPushed) - count(packetPopped) - count(packetRemoved) - count(packetDropped)"
attr title "queue length, max"
scalar ToyEVDoSScenario.ev[1].wlan[0].mac.dcf.channelAccess.pendingQueue queueLength:timeavg 4.2919722322162e-005
attr interpolationmode sample-hold
attr source "count(packetPushed) - count(packetPopped) - count(packetRemoved) - count(packetDropped)"
attr title "queue length, timeavg"
scalar ToyEVDoSScenario.ev[1].wlan[0].mac.dcf.channelAccess.pendingQueue packetPushed:count 337
attr interpolationmode none
attr title "packet pushed, count"
scalar ToyEVDoSScenario.ev[1].wlan[0].mac.dcf.channelAccess.pendingQueue packetPushed:sum(packetBytes) 123191
attr interpolationmode none
attr title "packet pushed, sum(packetBytes)"
scalar ToyEVDoSScenario.ev[1].wlan[0].mac.dcf.channelAccess.pendingQueue packetDropQueueOverflow:count 0
attr interpolationmode none
attr source packetDropReasonIsQueueOverflow(packetDropped)
attr title "packet drops: queue overflow, count"
scalar ToyEVDoSScenario.ev[1].wlan[0].mac.dcf.channelAccess.pendingQueue packetDropQueueOverflow:sum(packetBytes) 0
attr interpolationmode none
attr source packetDropReasonIsQueueOverflow(packetDropped)
attr title "packet drops: queue overflow, sum(packetBytes)"
scalar ToyEVDoSScenario.ev[1].wlan[0].mac.dcf.channelAccess.pendingQueue packetRemoved:count 0
attr interpolationmode none
attr title "packets removed, count"
scalar ToyEVDoSScenario.ev[1].wlan[0].mac.dcf.channelAccess.pendingQueue packetRemoved:sum(packetBytes) 0
attr interpolationmode none
attr title "packets removed, sum(packetBytes)"
statistic ToyEVDoSScenario.ev[1].wlan[0].mac.dcf.channelAccess.inProgressFrames queueingTime:histogram
field count 337
field mean 0.0001506646884273
field stddev 2.0223388583775e-005
field min 6.6e-005
field max 0.000182
field sum 0.050774
field sqrsum 7.787268e-006
attr interpolationmode none
attr source queueingTime(packetDequeued)
attr title "queueing times, histogram"
bin	-inf	0
bin	5.6e-005	0
bin	5.8e-005	0
bin	6e-005	0
bin	6.2e-005	0
bin	6.4e-005	0
bin	6.6e-005	1
bin	6.8e-005	0
bin	7e-005	0
bin	7.2e-005	0
bin	7.4e-005	0
bin	7.6e-005	0
bin	7.8e-005	0
bin	8e-005	1
bin	8.2e-005	0
bin	8.4e-005	0
bin	8.6e-005	0
bin	8.8e-005	0
bin	9e-005	0
bin	9.2e-005	0
bin	9.4e-005	0
bin	9.6e-005	0
bin	9.8e-005	0
bin	0.0001	0
bin	0.000102	0
bin	0.000104	0
bin	0.000106	0
bin	0.000108	0
bin	0.00011	0
bin	0.000112	0
bin	0.000114	0
bin	0.000116	16
bin	0.000118	0
bin	0.00012	18
bin	0.000122	0
bin	0.000124	15
bin	0.000126	0
bin	0.000128	19
bin	0.00013	0
bin	0.000132	0
bin	0.000134	23
bin	0.000136	24
bin	0.000138	0
bin	0.00014	22
bin	0.000142	0
bin	0.000144	15
bin	0.000146	0
bin	0.000148	17
bin	0.00015	0
bin	0.000152	0
bin	0.000154	20
bin	0.000156	18
bin	0.000158	0
bin	0.00016	18
bin	0.000162	0
bin	0.000164	24
bin	0.000166	0
bin	0.000168	22
bin	0.00017	0
bin	0.000172	28
bin	0.000174	0
bin	0.000176	16
bin	0.000178	0
bin	0.00018	20
bin	0.000182	0
bin	0.000184	0
bin	0.000186	0
bin	0.000188	0
bin	0.00019	0
bin	0.000192	0
bin	0.000194	0
bin	0.000196	0
bin	0.000198	0
bin	0.0002	0
bin	0.000202	0
bin	0.000204	0
bin	0.000206	0
bin	0.000208	0
scalar ToyEVDoSScenario.ev[1].wlan[0].mac.dcf.channelAccess.inProgressFrames queueLength:max 1
attr interpolationmode sample-hold
attr source "count(packetEnqueued) - count(packetDequeued)"
attr title "queue length, max"
scalar ToyEVDoSScenario.ev[1].wlan[0].mac.dcf.channelAccess.inProgressFrames queueLength:timeavg 0.00025361585064548
attr interpolationmode sample-hold
attr source "count(packetEnqueued) - count(packetDequeued)"
attr title "queue length, timeavg"
scalar ToyEVDoSScenario.ev[1].wlan[0].mac.dcf.channelAccess.contention stateChanged:count 119974
attr interpolationmode none
attr title "contention state changed, count"
scalar ToyEVDoSScenario.ev[1].wlan[0].mac.dcf.channelAccess.contention channelAccessGranted:count 337
attr title "channel access granted, count"
scalar ToyEVDoSScenario.ev[1].wlan[0].mac.dcf.channelAccess channelOwnershipChanged:count 674
attr interpolationmode sample-hold
attr title "channel ownership, count"
scalar ToyEVDoSScenario.ev[1].wlan[0].mac.dcf.originatorMacDataService packetAggregated:count 0
attr title "packets aggregated, count"
scalar ToyEVDoSScenario.ev[1].wlan[0].mac.dcf.originatorMacDataService packetFragmented:count 0
attr title "packets fragmented, count"
scalar ToyEVDoSScenario.ev[1].wlan[0].mac.dcf.recipientMacDataService packetDropDuplicateDetected:count 0
attr interpolationmode none
attr source packetDropReasonIsDuplicateDetected(packetDropped)
attr title "packet drops: duplicate detected, count"
scalar ToyEVDoSScenario.ev[1].wlan[0].mac.dcf.recipientMacDataService packetDropDuplicateDetected:sum(packetBytes) 0
attr interpolationmode none
attr source packetDropReasonIsDuplicateDetected(packetDropped)
attr title "packet drops: duplicate detected, sum(packetBytes)"
scalar ToyEVDoSScenario.ev[1].wlan[0].mac.dcf.recipientMacDataService packetDeaggregated:count 0
attr title "packets deaggregated, count"
scalar ToyEVDoSScenario.ev[1].wlan[0].mac.dcf.recipientMacDataService packetDefragmented:count 27768
attr title "packets defragmented, count"
scalar ToyEVDoSScenario.ev[1].wlan[0].mac.dcf.recoveryProcedure retryLimitReached:count 0
attr title "retry limit reached, count"
scalar ToyEVDoSScenario.ev[1].wlan[0].mac.dcf packetReceivedFromPeer:count 29319
attr interpolationmode none
attr title "packets received, count"
scalar ToyEVDoSScenario.ev[1].wlan[0].mac.dcf packetReceivedFromPeer:sum(packetBytes) 25708009
attr interpolationmode none
attr title "packets received, sum(packetBytes)"
scalar ToyEVDoSScenario.ev[1].wlan[0].mac.dcf packetReceivedFromPeerUnicast:count 0
attr interpolationmode none
attr source ieee80211Unicast(packetReceivedFromPeer)
attr title "packets received: unicast, count"
scalar ToyEVDoSScenario.ev[1].wlan[0].mac.dcf packetReceivedFromPeerUnicast:sum(packetBytes) 0
attr interpolationmode none
attr source ieee80211Unicast(packetReceivedFromPeer)
attr title "packets received: unicast, sum(packetBytes)"
scalar ToyEVDoSScenario.ev[1].wlan[0].mac.dcf packetReceivedFromPeerMulticast:count 29319
attr interpolationmode none
attr source ieee80211Multicast(packetReceivedFromPeer)
attr title "packets received: multicast, count"
scalar ToyEVDoSScenario.ev[1].wlan[0].mac.dcf packetReceivedFromPeerMulticast:sum(packetBytes) 25708009
attr interpolationmode none
attr source ieee80211Multicast(packetReceivedFromPeer)
attr title "packets received: multicast, sum(packetBytes)"
scalar ToyEVDoSScenario.ev[1].wlan[0].mac.dcf packetReceivedFromPeerBroadcast:count 0
attr interpolationmode none
attr source ieee80211Broadcast(packetReceivedFromPeer)
attr title "packets received: broadcast, count"
scalar ToyEVDoSScenario.ev[1].wlan[0].mac.dcf packetReceivedFromPeerBroadcast:sum(packetBytes) 0
attr interpolationmode none
attr source ieee80211Broadcast(packetReceivedFromPeer)
attr title "packets received: broadcast, sum(packetBytes)"
scalar ToyEVDoSScenario.ev[1].wlan[0].mac.dcf packetReceivedFromPeerWithRetry:count 0
attr interpolationmode none
attr source ieee80211Retry(packetReceivedFromPeer)
attr title "packets received: with retry, count"
scalar ToyEVDoSScenario.ev[1].wlan[0].mac.dcf packetReceivedFromPeerWithRetry:sum(packetBytes) 0
attr interpolationmode none
attr source ieee80211Retry(packetReceivedFromPeer)
attr title "packets received: with retry, sum(packetBytes)"
scalar ToyEVDoSScenario.ev[1].wlan[0].mac.dcf packetReceivedFromPeerWithoutRetry:count 29319
attr interpolationmode none
attr source ieee80211NotRetry(packetReceivedFromPeer)
attr title "packets received: without retry, count"
scalar ToyEVDoSScenario.ev[1].wlan[0].mac.dcf packetReceivedFromPeerWithoutRetry:sum(packetBytes) 25708009
attr interpolationmode none
attr source ieee80211NotRetry(packetReceivedFromPeer)
attr title "packets received: without retry, sum(packetBytes)"
scalar ToyEVDoSScenario.ev[1].wlan[0].mac.dcf packetSentToPeer:count 337
attr interpolationmode none
attr title "packets sent, count"
scalar ToyEVDoSScenario.ev[1].wlan[0].mac.dcf packetSentToPeer:sum(packetBytes) 123191
attr interpolationmode none
attr title "packets sent, sum(packetBytes)"
scalar ToyEVDoSScenario.ev[1].wlan[0].mac.dcf packetSentToPeerUnicast:count 0
attr interpolationmode none
attr source ieee80211Unicast(packetSentToPeer)
attr title "packets sent: unicast, count"
scalar ToyEVDoSScenario.ev[1].wlan[0].mac.dcf packetSentToPeerUnicast:sum(packetBytes) 0
attr interpolationmode none
attr source ieee80211Unicast(packetSentToPeer)
attr title "packets sent: unicast, sum(packetBytes)"
scalar ToyEVDoSScenario.ev[1].wlan[0].mac.dcf packetSentToPeerMulticast:count 337
attr interpolationmode none
attr source ieee80211Multicast(packetSentToPeer)
attr title "packets sent: multicast, count"
scalar ToyEVDoSScenario.ev[1].wlan[0].mac.dcf packetSentToPeerMulticast:sum(packetBytes) 123191
attr interpolationmode none
attr source ieee80211Multicast(packetSentToPeer)
attr title "packets sent: multicast, sum(packetBytes)"
scalar ToyEVDoSScenario.ev[1].wlan[0].mac.dcf packetSentToPeerBroadcast:count 0
attr interpolationmode none
attr source ieee80211Broadcast(packetSentToPeer)
attr title "packets sent: broadcast , count"
scalar ToyEVDoSScenario.ev[1].wlan[0].mac.dcf packetSentToPeerBroadcast:sum(packetBytes) 0
attr interpolationmode none
attr source ieee80211Broadcast(packetSentToPeer)
attr title "packets sent: broadcast , sum(packetBytes)"
scalar ToyEVDoSScenario.ev[1].wlan[0].mac.dcf packetSentToPeerWithRetry:count 0
attr interpolationmode none
attr source ieee80211Retry(packetSentToPeer)
attr title "packets sent: with retry, count"
scalar ToyEVDoSScenario.ev[1].wlan[0].mac.dcf packetSentToPeerWithRetry:sum(packetBytes) 0
attr interpolationmode none
attr source ieee80211Retry(packetSentToPeer)
attr title "packets sent: with retry, sum(packetBytes)"
scalar ToyEVDoSScenario.ev[1].wlan[0].mac.dcf packetSentToPeerWithoutRetry:count 337
attr interpolationmode none
attr source ieee80211NotRetry(packetSentToPeer)
attr title "packets sent: without retry, count"
scalar ToyEVDoSScenario.ev[1].wlan[0].mac.dcf packetSentToPeerWithoutRetry:sum(packetBytes) 123191
attr interpolationmode none
attr source ieee80211NotRetry(packetSentToPeer)
attr title "packets sent: without retry, sum(packetBytes)"
scalar ToyEVDoSScenario.ev[1].wlan[0].mac.dcf packetDrop:count 0
attr interpolationmode none
attr source packetDropped
attr title "packet drops, count"
scalar ToyEVDoSScenario.ev[1].wlan[0].mac.dcf packetDrop:sum(packetBytes) 0
attr interpolationmode none
attr source packetDropped
attr title "packet drops, sum(packetBytes)"
scalar ToyEVDoSScenario.ev[1].wlan[0].mac.dcf packetDropNotAddressedToUs:count 0
attr interpolationmode none
attr source packetDropReasonIsNotAddressedToUs(packetDropped)
attr title "packet drops: not addressed to us, count"
scalar ToyEVDoSScenario.ev[1].wlan[0].mac.dcf packetDropNotAddressedToUs:sum(packetBytes) 0
attr interpolationmode none
attr source packetDropReasonIsNotAddressedToUs(packetDropped)
attr title "packet drops: not addressed to us, sum(packetBytes)"
scalar ToyEVDoSScenario.ev[1].wlan[0].mac.dcf packetDropQueueOverflow:count 0
attr interpolationmode none
attr source packetDropReasonIsQueueOverflow(packetDropped)
attr title "packet drops: queue overflow, count"
scalar ToyEVDoSScenario.ev[1].wlan[0].mac.dcf packetDropQueueOverflow:sum(packetBytes) 0
attr interpolationmode none
attr source packetDropReasonIsQueueOverflow(packetDropped)
attr title "packet drops: queue overflow, sum(packetBytes)"
scalar ToyEVDoSScenario.ev[1].wlan[0].mac.dcf packetDropRetryLimitReached:count 0
attr interpolationmode none
attr source packetDropReasonIsRetryLimitReached(packetDropped)
attr title "packet drops: retry limit reached, count"
scalar ToyEVDoSScenario.ev[1].wlan[0].mac.dcf packetDropRetryLimitReached:sum(packetBytes) 0
attr interpolationmode none
attr source packetDropReasonIsRetryLimitReached(packetDropped)
attr title "packet drops: retry limit reached, sum(packetBytes)"
scalar ToyEVDoSScenario.ev[1].wlan[0].mac.dcf linkBroken:count 0
attr interpolationmode none
attr title "link breaks, count"
scalar ToyEVDoSScenario.ev[1].wlan[0].mac.dcf frameSequenceFinished:count 337
attr title "finished frame sequences, count"
statistic ToyEVDoSScenario.ev[1].wlan[0].mac.dcf frameSequenceDuration:histogram
field count 337
field mean 0.0001506646884273
field stddev 2.0223388583775e-005
field min 6.6e-005
field max 0.000182
field sum 0.050774
field sqrsum 7.787268e-006
attr source frameSequenceDuration(frameSequenceFinished)
attr title "frame sequence durations, histogram"
bin	-inf	0
bin	5.6e-005	0
bin	5.8e-005	0
bin	6e-005	0
bin	6.2e-005	0
bin	6.4e-005	0
bin	6.6e-005	1
bin	6.8e-005	0
bin	7e-005	0
bin	7.2e-005	0
bin	7.4e-005	0
bin	7.6e-005	0
bin	7.8e-005	0
bin	8e-005	1
bin	8.2e-005	0
bin	8.4e-005	0
bin	8.6e-005	0
bin	8.8e-005	0
bin	9e-005	0
bin	9.2e-005	0
bin	9.4e-005	0
bin	9.6e-005	0
bin	9.8e-005	0
bin	0.0001	0
bin	0.000102	0
bin	0.000104	0
bin	0.000106	0
bin	0.000108	0
bin	0.00011	0
bin	0.000112	0
bin	0.000114	0
bin	0.000116	16
bin	0.000118	0
bin	0.00012	18
bin	0.000122	0
bin	0.000124	15
bin	0.000126	0
bin	0.000128	19
bin	0.00013	0
bin	0.000132	0
bin	0.000134	23
bin	0.000136	24
bin	0.000138	0
bin	0.00014	22
bin	0.000142	0
bin	0.000144	15
bin	0.000146	0
bin	0.000148	17
bin	0.00015	0
bin	0.000152	0
bin	0.000154	20
bin	0.000156	18
bin	0.000158	0
bin	0.00016	18
bin	0.000162	0
bin	0.000164	24
bin	0.000166	0
bin	0.000168	22
bin	0.00017	0
bin	0.000172	28
bin	0.000174	0
bin	0.000176	16
bin	0.000178	0
bin	0.00018	20
bin	0.000182	0
bin	0.000184	0
bin	0.000186	0
bin	0.000188	0
bin	0.00019	0
bin	0.000192	0
bin	0.000194	0
bin	0.000196	0
bin	0.000198	0
bin	0.0002	0
bin	0.000202	0
bin	0.000204	0
bin	0.000206	0
bin	0.000208	0
statistic ToyEVDoSScenario.ev[1].wlan[0].mac.dcf frameSequenceNumPackets:histogram
field count 337
field mean 1
field stddev 0
field min 1
field max 1
field sum 337
field sqrsum 337
attr source frameSequenceNumPackets(frameSequenceFinished)
attr title "frame sequences: number of packets, histogram"
bin	-inf	0
bin	0	0
bin	1	337
bin	2	0
scalar ToyEVDoSScenario.ev[1].wlan[0].mac packetReceivedFromLower:count 29319
attr interpolationmode none
attr title "packets received from lower layer, count"
scalar ToyEVDoSScenario.ev[1].wlan[0].mac packetReceivedFromLower:sum(packetBytes) 25708009
attr interpolationmode none
attr title "packets received from lower layer, sum(packetBytes)"
scalar ToyEVDoSScenario.ev[1].wlan[0].mac packetSentToLower:count 337
attr interpolationmode none
attr title "packets sent to lower layer, count"
scalar ToyEVDoSScenario.ev[1].wlan[0].mac packetSentToLower:sum(packetBytes) 123191
attr interpolationmode none
attr title "packets sent to lower layer, sum(packetBytes)"
scalar ToyEVDoSScenario.ev[1].wlan[0].mac packetReceivedFromUpper:count 337
attr interpolationmode none
attr title "packets received from upper layer, count"
scalar ToyEVDoSScenario.ev[1].wlan[0].mac packetReceivedFromUpper:sum(packetBytes) 113755
attr interpolationmode none
attr title "packets received from upper layer, sum(packetBytes)"
scalar ToyEVDoSScenario.ev[1].wlan[0].mac packetSentToUpper:count 27768
attr interpolationmode none
attr title "packets sent to upper layer, count"
scalar ToyEVDoSScenario.ev[1].wlan[0].mac packetSentToUpper:sum(packetBytes) 24887077
attr interpolationmode none
attr title "packets sent to upper layer, sum(packetBytes)"
scalar ToyEVDoSScenario.ev[1].wlan[0].mac packetDrop:count 0
attr interpolationmode none
attr source packetDropped
attr title "packet drops, count"
scalar ToyEVDoSScenario.ev[1].wlan[0].mac packetDrop:sum(packetBytes) 0
attr interpolationmode none
attr source packetDropped
attr title "packet drops, sum(packetBytes)"
scalar ToyEVDoSScenario.ev[1].wlan[0].mac packetDropIncorrectlyReceived:count 0
attr interpolationmode none
attr source packetDropReasonIsIncorrectlyReceived(packetDropped)
attr title "packet drops: incorrectly received, count"
scalar ToyEVDoSScenario.ev[1].wlan[0].mac packetDropIncorrectlyReceived:sum(packetBytes) 0
attr interpolationmode none
attr source packetDropReasonIsIncorrectlyReceived(packetDropped)
attr title "packet drops: incorrectly received, sum(packetBytes)"
scalar ToyEVDoSScenario.ev[1].wlan[0].mac packetDropNotAddressedToUs:count 0
attr interpolationmode none
attr source packetDropReasonIsNotAddressedToUs(packetDropped)
attr title "packet drops: not addressed to us, count"
scalar ToyEVDoSScenario.ev[1].wlan[0].mac packetDropNotAddressedToUs:sum(packetBytes) 0
attr interpolationmode none
attr source packetDropReasonIsNotAddressedToUs(packetDropped)
attr title "packet drops: not addressed to us, sum(packetBytes)"
scalar ToyEVDoSScenario.ev[1].wlan[0].mac packetDropQueueOverflow:count 0
attr interpolationmode none
attr source packetDropReasonIsQueueOverflow(packetDropped)
attr title "packet drops: queue overflow, count"
scalar ToyEVDoSScenario.ev[1].wlan[0].mac packetDropQueueOverflow:sum(packetBytes) 0
attr interpolationmode none
attr source packetDropReasonIsQueueOverflow(packetDropped)
attr title "packet drops: queue overflow, sum(packetBytes)"
scalar ToyEVDoSScenario.ev[1].wlan[0].mac packetDropRetryLimitReached:count 0
attr interpolationmode none
attr source packetDropReasonIsRetryLimitReached(packetDropped)
attr title "packet drops: retry limit reached, count"
scalar ToyEVDoSScenario.ev[1].wlan[0].mac packetDropRetryLimitReached:sum(packetBytes) 0
attr interpolationmode none
attr source packetDropReasonIsRetryLimitReached(packetDropped)
attr title "packet drops: retry limit reached, sum(packetBytes)"
scalar ToyEVDoSScenario.ev[1].wlan[0].mac packetDropDuplicateDetected:count 0
attr interpolationmode none
attr source packetDropReasonIsDuplicateDetected(packetDropped)
attr title "packet drops: duplicate detected, count"
scalar ToyEVDoSScenario.ev[1].wlan[0].mac packetDropDuplicateDetected:sum(packetBytes) 0
attr interpolationmode none
attr source packetDropReasonIsDuplicateDetected(packetDropped)
attr title "packet drops: duplicate detected, sum(packetBytes)"
scalar ToyEVDoSScenario.ev[1].wlan[0].mac packetDropOther:count 0
attr interpolationmode none
attr source packetDropReasonIsOther(packetDropped)
attr title "packet drops: other, count"
scalar ToyEVDoSScenario.ev[1].wlan[0].mac packetDropOther:sum(packetBytes) 0
attr interpolationmode none
attr source packetDropReasonIsOther(packetDropped)
attr title "packet drops: other, sum(packetBytes)"
scalar ToyEVDoSScenario.ev[1].wlan[0].mac linkBroken:count 0
attr interpolationmode none
attr title "link breaks, count"
statistic ToyEVDoSScenario.ev[1].wlan[0].radio minSnir:histogram
field count 29319
field mean 4816.6235001654
field stddev 23736.158137001
field min 386.37672401143
field max 3025855.0416339
field sum 141218584.40135
field sqrsum 17198110496912
attr source minimumSnir(packetSentToUpper)
attr title "Min SNIR, histogram"
bin	-inf	0
bin	0	29311
bin	60000	2
bin	120000	1
bin	180000	1
bin	240000	0
bin	300000	1
bin	360000	0
bin	420000	0
bin	480000	1
bin	540000	0
bin	600000	0
bin	660000	0
bin	720000	0
bin	780000	0
bin	840000	0
bin	900000	0
bin	960000	0
bin	1020000	0
bin	1080000	0
bin	1140000	0
bin	1200000	0
bin	1260000	0
bin	1320000	0
bin	1380000	0
bin	1440000	0
bin	1500000	0
bin	1560000	0
bin	1620000	0
bin	1680000	0
bin	1740000	0
bin	1800000	0
bin	1860000	0
bin	1920000	0
bin	1980000	0
bin	2040000	0
bin	2100000	0
bin	2160000	0
bin	2220000	0
bin	2280000	0
bin	2340000	0
bin	2400000	0
bin	2460000	0
bin	2520000	1
bin	2580000	0
bin	2640000	0
bin	2700000	0
bin	2760000	0
bin	2820000	0
bin	2880000	0
bin	2940000	0
bin	3000000	1
bin	3060000	0
statistic ToyEVDoSScenario.ev[1].wlan[0].radio packetErrorRate:histogram
field count 29319
field mean 0
field stddev 0
field min 0
field max 0
field sum 0
field sqrsum 0
attr source packetErrorRate(packetSentToUpper)
attr title "Packet error rate, histogram"
bin	-inf	0
bin	-0.5	0
bin	-0.48	0
bin	-0.46	0
bin	-0.44	0
bin	-0.42	0
bin	-0.4	0
bin	-0.38	0
bin	-0.36	0
bin	-0.34	0
bin	-0.32	0
bin	-0.3	0
bin	-0.28	0
bin	-0.26	0
bin	-0.24	0
bin	-0.22	0
bin	-0.2	0
bin	-0.18	0
bin	-0.16	0
bin	-0.14	0
bin	-0.12	0
bin	-0.1	0
bin	-0.08	0
bin	-0.06	0
bin	-0.04	0
bin	-0.02	0
bin	0	29319
bin	0.02	0
bin	0.04	0
bin	0.06	0
bin	0.08	0
bin	0.1	0
bin	0.12	0
bin	0.14	0
bin	0.16	0
bin	0.18	0
bin	0.2	0
bin	0.22	0
bin	0.24	0
bin	0.26	0
bin	0.28	0
bin	0.3	0
bin	0.32	0
bin	0.34	0
bin	0.36	0
bin	0.38	0
bin	0.4	0
bin	0.42	0
bin	0.44	0
bin	0.46	0
bin	0.48	0
bin	0.5	0
statistic ToyEVDoSScenario.ev[1].wlan[0].radio bitErrorRate:histogram
field count 0
field mean nan
field stddev nan
field min nan
field max nan
field sum 0
field sqrsum 0
attr source bitErrorRate(packetSentToUpper)
attr title "Bit error rate, histogram"
bin	-inf	0
bin	0	0
bin	1	0
statistic ToyEVDoSScenario.ev[1].wlan[0].radio symbolErrorRate:histogram
field count 0
field mean nan
field stddev nan
field min nan
field max nan
field sum 0
field sqrsum 0
attr source symbolErrorRate(packetSentToUpper)
attr title "Symbol error rate, histogram"
bin	-inf	0
bin	0	0
bin	1	0
scalar ToyEVDoSScenario.ev[1].wlan[0].radio transmissionState:count 1348
attr interpolationmode sample-hold
attr source transmissionStateChanged
attr title "Radio transmission state, count"
scalar ToyEVDoSScenario.ev[1].wlan[0].radio receptionState:count 59313
attr interpolationmode sample-hold
attr source receptionStateChanged
attr title "Radio reception state, count"
scalar ToyEVDoSScenario.ev[1].wlan[0].radio radioMode:count 677
attr interpolationmode sample-hold
attr source radioModeChanged
attr title "Radio mode, count"
statistic ToyEVDoSScenario.ev[1].wlan[0].radio radioChannel:histogram
field count 1
field mean 3
field stddev nan
field min 3
field max 3
field sum 3
field sqrsum 9
attr interpolationmode sample-hold
attr source radioChannelChanged
attr title "Radio channel, histogram"
bin	-inf	0
bin	2	0
bin	3	1
bin	4	0
scalar ToyEVDoSScenario.ev[1].ipv4.ip packetDropAddressResolutionFailed:count 0
attr interpolationmode none
attr source packetDropReasonIsAddressResolutionFailed(packetDropped)
attr title "packet drop: address resolution failed, count"
scalar ToyEVDoSScenario.ev[1].ipv4.ip packetDropAddressResolutionFailed:sum(packetBytes) 0
attr interpolationmode none
attr source packetDropReasonIsAddressResolutionFailed(packetDropped)
attr title "packet drop: address resolution failed, sum(packetBytes)"
scalar ToyEVDoSScenario.ev[1].ipv4.ip packetDropHopLimitReached:count 0
attr interpolationmode none
attr source packetDropReasonIsHopLimitReached(packetDropped)
attr title "packet drop: hop limit reached, count"
scalar ToyEVDoSScenario.ev[1].ipv4.ip packetDropHopLimitReached:sum(packetBytes) 0
attr interpolationmode none
attr source packetDropReasonIsHopLimitReached(packetDropped)
attr title "packet drop: hop limit reached, sum(packetBytes)"
scalar ToyEVDoSScenario.ev[1].ipv4.ip packetDropForwardingDisabled:count 0
attr interpolationmode none
attr source packetDropReasonIsForwardingDisabled(packetDropped)
attr title "packet drop: forwarding disabled, count"
scalar ToyEVDoSScenario.ev[1].ipv4.ip packetDropForwardingDisabled:sum(packetBytes) 0
attr interpolationmode none
attr source packetDropReasonIsForwardingDisabled(packetDropped)
attr title "packet drop: forwarding disabled, sum(packetBytes)"
scalar ToyEVDoSScenario.ev[1].ipv4.ip packetDropNoInterfaceFound:count 0
attr interpolationmode none
attr source packetDropReasonIsNoInterfaceFound(packetDropped)
attr title "packet drop: no interface found, count"
scalar ToyEVDoSScenario.ev[1].ipv4.ip packetDropNoInterfaceFound:sum(packetBytes) 0
attr interpolationmode none
attr source packetDropReasonIsNoInterfaceFound(packetDropped)
attr title "packet drop: no interface found, sum(packetBytes)"
scalar ToyEVDoSScenario.ev[1].ipv4.ip packetDropNoRouteFound:count 0
attr interpolationmode none
attr source packetDropReasonIsNoRouteFound(packetDropped)
attr title "packet drop: no route found, count"
scalar ToyEVDoSScenario.ev[1].ipv4.ip packetDropNoRouteFound:sum(packetBytes) 0
attr interpolationmode none
attr source packetDropReasonIsNoRouteFound(packetDropped)
attr title "packet drop: no route found, sum(packetBytes)"
scalar ToyEVDoSScenario.ev[1].ipv4.ip packetDropUndefined:count 0
attr interpolationmode none
attr source packetDropReasonIsUndefined(packetDropped)
attr title "packet drop: undefined, count"
scalar ToyEVDoSScenario.ev[1].ipv4.ip packetDropUndefined:sum(packetBytes) 0
attr interpolationmode none
attr source packetDropReasonIsUndefined(packetDropped)
attr title "packet drop: undefined, sum(packetBytes)"
scalar ToyEVDoSScenario.ev[1].ipv4.arp arpReplySent:count 0
attr source arpReplySent
attr title "ARP replies sent, count"
scalar ToyEVDoSScenario.ev[1].ipv4.arp arpReplySent:sum(packetBytes) 0
attr source arpReplySent
attr title "ARP replies sent, sum(packetBytes)"
scalar ToyEVDoSScenario.ev[1].ipv4.arp arpRequestSent:count 0
attr source arpRequestSent
attr title "ARP request sent, count"
scalar ToyEVDoSScenario.ev[1].ipv4.arp arpRequestSent:sum(packetBytes) 0
attr source arpRequestSent
attr title "ARP request sent, sum(packetBytes)"
scalar ToyEVDoSScenario.ev[1].ipv4.arp arpResolutionFailed:count 0
attr title "ARP failed resolutions, count"
scalar ToyEVDoSScenario.ev[1].ipv4.arp arpResolutionCompleted:count 0
attr title "ARP completed resolutions, count"
scalar ToyEVDoSScenario.ev[1].ipv4.arp arpResolutionInitiated:count 0
attr title "ARP initiated resolutions, count"
scalar ToyEVDoSScenario.ev[1].udp packetReceived:count 28105
attr interpolationmode none
attr source packetReceived
attr title "packets received, count"
scalar ToyEVDoSScenario.ev[1].udp packetReceived:sum(packetBytes) 24213892
attr interpolationmode none
attr source packetReceived
attr title "packets received, sum(packetBytes)"
scalar ToyEVDoSScenario.ev[1].udp packetSent:count 337
attr interpolationmode none
attr source packetSent
attr title "packets sent, count"
scalar ToyEVDoSScenario.ev[1].udp packetSent:sum(packetBytes) 104319
attr interpolationmode none
attr source packetSent
attr title "packets sent, sum(packetBytes)"
scalar ToyEVDoSScenario.ev[1].udp passedUpPk:count 28105
attr interpolationmode none
attr source packetSentToUpper
attr title "packets passed up, count"
scalar ToyEVDoSScenario.ev[1].udp droppedPkWrongPort:count 0
attr interpolationmode none
attr source packetDropReasonIsNoPortFound(packetDropped)
attr title "packets dropped (wrong port), count"
scalar ToyEVDoSScenario.ev[1].udp droppedPkBadChecksum:count 0
attr interpolationmode none
attr source packetDropReasonIsIncorrectlyReceived(packetDropped)
attr title "packets dropped (checksum error), count"
scalar ToyEVDoSScenario.ev[1].app[0] packetsSent 337
scalar ToyEVDoSScenario.ev[1].app[0] packetsReceived 308
scalar ToyEVDoSScenario.ev[1].app[0] totalEnergyConsumed 137.89720280059
scalar ToyEVDoSScenario.ev[1].app[0] finalBatteryWh 102.3878992819
scalar ToyEVDoSScenario.ev[1].app[0] finalSoC 0.51193949640949
scalar ToyEVDoSScenario.ev[1].app[0] totalBytesSent 101623
scalar ToyEVDoSScenario.ev[1].app[0] totalBytesReceived 91610
scalar ToyEVDoSScenario.ev[1].app[0] packetSendRate 1.5918752952291
scalar ToyEVDoSScenario.ev[1].app[0] packetRecvRate 1.4548889938592
scalar ToyEVDoSScenario.ev[1].app[0] attackDurationParam 60
scalar ToyEVDoSScenario.ev[1].app[0] isAttackerParam 0
statistic ToyEVDoSScenario.ev[1].app[0] senderSpeed:stats
field count 308
field mean 6.1011174215992
field stddev 6.6602918149668
field min 0
field max 14.560875646085
field sum 1879.1441658525
field sqrsum 25083.241735557
statistic ToyEVDoSScenario.ev[1].app[0] soc:stats
field count 844
field mean 0.56331141277312
field stddev 0.27125324932237
field min 0.10992865655157
field max 1
field sum 475.43483238052
field sqrsum 329.8443953107
attr title "State of Charge, stats"
statistic ToyEVDoSScenario.ev[1].app[0] batteryLevel:stats
field count 844
field mean 112.66228255462
field stddev 54.250649864474
field min 21.985731310314
field max 200
field sum 95086.966476103
field sqrsum 13193775.812428
statistic ToyEVDoSScenario.ev[1].app[0] txDuration:stats
field count 308
field mean 0.00039658008658009
field stddev 9.0709184043137e-005
field min 0.00013333333333333
field max 0.00053333333333333
field sum 0.12214666666667
field sqrsum 5.0966979555556e-005
statistic ToyEVDoSScenario.ev[1].app[0] energyConsumption:stats
field count 643
field mean 6.2602881805611e-009
field stddev 5.276444070321e-009
field min 3.0030803654895e-010
field max 1.771559389791e-008
field sum 4.0253653001008e-006
field sqrsum 4.307378023214e-014
statistic ToyEVDoSScenario.ev[1].app[0] interArrivalTime:stats
field count 643
field mean 0.6572363288085
field stddev 1.1615729733477
field min 0.008819503941
field max 25.321120155472
field sum 422.60295942386
field sqrsum 1143.9696554837
statistic ToyEVDoSScenario.ev[1].app[0] packetSize:stats
field count 643
field mean 300.28460342146
field stddev 63.145420327768
field min 100
field max 400
field sum 193083
field sqrsum 60539727
scalar ToyEVDoSScenario.ev[1].app[0] packetReceived:count 308
attr interpolationmode none
attr source packetReceived
attr title "packets received, count"
scalar ToyEVDoSScenario.ev[1].app[0] packetReceived:sum 308
attr interpolationmode none
attr source packetReceived
attr title "packets received, sum"
scalar ToyEVDoSScenario.ev[1].app[0] packetSent:count 335
attr interpolationmode none
attr source packetSent
attr title "packets sent, count"
scalar ToyEVDoSScenario.ev[1].app[0] packetSent:sum 56708
attr interpolationmode none
attr source packetSent
attr title "packets sent, sum"
scalar ToyEVDoSScenario.radioMedium.propagation "Arrival computation count" 89294
scalar ToyEVDoSScenario.radioMedium "transmission count" 29819
scalar ToyEVDoSScenario.radioMedium "signal send count" 89294
scalar ToyEVDoSScenario.radioMedium "reception computation count" 89294
scalar ToyEVDoSScenario.radioMedium "interference computation count" 297705
scalar ToyEVDoSScenario.radioMedium "reception decision computation count" 89294
scalar ToyEVDoSScenario.radioMedium "listening decision computation count" 119117
scalar ToyEVDoSScenario.radioMedium "reception cache hit" 85.714285714286
attr unit %
scalar ToyEVDoSScenario.radioMedium "interference cache hit" 66.666666666667
attr unit %
scalar ToyEVDoSScenario.radioMedium "noise cache hit" 0
attr unit %
scalar ToyEVDoSScenario.radioMedium "snir cache hit" 50
attr unit %
scalar ToyEVDoSScenario.radioMedium "reception decision cache hit" 50
attr unit %
scalar ToyEVDoSScenario.radioMedium "reception result cache hit" 0
attr unit %
scalar ToyEVDoSScenario.veinsManager roiArea 0
scalar ToyEVDoSScenario.cs[0].lo[0].lo rcvdPkFromHl:count 10
attr interpolationmode none
attr source packetReceivedFromUpper
attr title "packets received from higher layer, count"
scalar ToyEVDoSScenario.cs[0].lo[0].lo rcvdPkFromHl:sum(packetBytes) 1280
attr interpolationmode none
attr source packetReceivedFromUpper
attr title "packets received from higher layer, sum(packetBytes)"
scalar ToyEVDoSScenario.cs[0].lo[0].lo passedUpPk:count 10
attr interpolationmode none
attr source packetSentToUpper
attr title "packets passed to higher layer, count"
scalar ToyEVDoSScenario.cs[0].lo[0].lo passedUpPk:sum(packetBytes) 1280
attr interpolationmode none
attr source packetSentToUpper
attr title "packets passed to higher layer, sum(packetBytes)"
scalar ToyEVDoSScenario.cs[0].wlan[0].mac.dcf.channelAccess.pendingQueue packetPopped:count 10
attr interpolationmode none
attr title "packet popped, count"
scalar ToyEVDoSScenario.cs[0].wlan[0].mac.dcf.channelAccess.pendingQueue packetPopped:sum(packetBytes) 1640
attr interpolationmode none
attr title "packet popped, sum(packetBytes)"
statistic ToyEVDoSScenario.cs[0].wlan[0].mac.dcf.channelAccess.pendingQueue queueingTime:histogram
field count 10
field mean 0.00014
field stddev 5.8309518948453e-005
field min 5e-005
field max 0.00023
field sum 0.0014
field sqrsum 2.266e-007
attr interpolationmode none
attr source queueingTime(packetPopped)
attr title "queueing times, histogram"
attr unit s
bin	-inf	0
bin	0	0
bin	5e-006	0
bin	1e-005	0
bin	1.5e-005	0
bin	2e-005	0
bin	2.5e-005	0
bin	3e-005	0
bin	3.5e-005	0
bin	4e-005	0
bin	4.5e-005	1
bin	5e-005	0
bin	5.5e-005	0
bin	6e-005	0
bin	6.5e-005	1
bin	7e-005	0
bin	7.5e-005	0
bin	8e-005	0
bin	8.5e-005	1
bin	9e-005	0
bin	9.5e-005	0
bin	0.0001	0
bin	0.000105	1
bin	0.00011	0
bin	0.000115	0
bin	0.00012	0
bin	0.000125	0
bin	0.00013	0
bin	0.000135	0
bin	0.00014	0
bin	0.000145	2
bin	0.00015	0
bin	0.000155	0
bin	0.00016	0
bin	0.000165	1
bin	0.00017	0
bin	0.000175	0
bin	0.00018	0
bin	0.000185	2
bin	0.00019	0
bin	0.000195	0
bin	0.0002	0
bin	0.000205	0
bin	0.00021	0
bin	0.000215	0
bin	0.00022	0
bin	0.000225	1
bin	0.00023	0
bin	0.000235	0
bin	0.00024	0
bin	0.000245	0
bin	0.00025	0
bin	0.000255	0
bin	0.00026	0
bin	0.000265	0
bin	0.00027	0
bin	0.000275	0
scalar ToyEVDoSScenario.cs[0].wlan[0].mac.dcf.channelAccess.pendingQueue queueLength:max 1
attr interpolationmode sample-hold
attr source "count(packetPushed) - count(packetPopped) - count(packetRemoved) - count(packetDropped)"
attr title "queue length, max"
scalar ToyEVDoSScenario.cs[0].wlan[0].mac.dcf.channelAccess.pendingQueue queueLength:timeavg 5.167960234565e-006
attr interpolationmode sample-hold
attr source "count(packetPushed) - count(packetPopped) - count(packetRemoved) - count(packetDropped)"
attr title "queue length, timeavg"
scalar ToyEVDoSScenario.cs[0].wlan[0].mac.dcf.channelAccess.pendingQueue packetPushed:count 10
attr interpolationmode none
attr title "packet pushed, count"
scalar ToyEVDoSScenario.cs[0].wlan[0].mac.dcf.channelAccess.pendingQueue packetPushed:sum(packetBytes) 1640
attr interpolationmode none
attr title "packet pushed, sum(packetBytes)"
scalar ToyEVDoSScenario.cs[0].wlan[0].mac.dcf.channelAccess.pendingQueue packetDropQueueOverflow:count 0
attr interpolationmode none
attr source packetDropReasonIsQueueOverflow(packetDropped)
attr title "packet drops: queue overflow, count"
scalar ToyEVDoSScenario.cs[0].wlan[0].mac.dcf.channelAccess.pendingQueue packetDropQueueOverflow:sum(packetBytes) 0
attr interpolationmode none
attr source packetDropReasonIsQueueOverflow(packetDropped)
attr title "packet drops: queue overflow, sum(packetBytes)"
scalar ToyEVDoSScenario.cs[0].wlan[0].mac.dcf.channelAccess.pendingQueue packetRemoved:count 0
attr interpolationmode none
attr title "packets removed, count"
scalar ToyEVDoSScenario.cs[0].wlan[0].mac.dcf.channelAccess.pendingQueue packetRemoved:sum(packetBytes) 0
attr interpolationmode none
attr title "packets removed, sum(packetBytes)"
statistic ToyEVDoSScenario.cs[0].wlan[0].mac.dcf.channelAccess.inProgressFrames queueingTime:histogram
field count 10
field mean 8.2e-005
field stddev 0
field min 8.2e-005
field max 8.2e-005
field sum 0.00082
field sqrsum 6.724e-008
attr interpolationmode none
attr source queueingTime(packetDequeued)
attr title "queueing times, histogram"
bin	-inf	0
bin	0	10
bin	0.01	0
bin	0.02	0
bin	0.03	0
bin	0.04	0
bin	0.05	0
bin	0.06	0
bin	0.07	0
bin	0.08	0
bin	0.09	0
bin	0.1	0
bin	0.11	0
bin	0.12	0
bin	0.13	0
bin	0.14	0
bin	0.15	0
bin	0.16	0
bin	0.17	0
bin	0.18	0
bin	0.19	0
bin	0.2	0
bin	0.21	0
bin	0.22	0
bin	0.23	0
bin	0.24	0
bin	0.25	0
bin	0.26	0
bin	0.27	0
bin	0.28	0
bin	0.29	0
bin	0.3	0
bin	0.31	0
bin	0.32	0
bin	0.33	0
bin	0.34	0
bin	0.35	0
bin	0.36	0
bin	0.37	0
bin	0.38	0
bin	0.39	0
bin	0.4	0
bin	0.41	0
bin	0.42	0
bin	0.43	0
bin	0.44	0
bin	0.45	0
bin	0.46	0
bin	0.47	0
bin	0.48	0
bin	0.49	0
bin	0.5	0
bin	0.51	0
scalar ToyEVDoSScenario.cs[0].wlan[0].mac.dcf.channelAccess.inProgressFrames queueLength:max 1
attr interpolationmode sample-hold
attr source "count(packetEnqueued) - count(packetDequeued)"
attr title "queue length, max"
scalar ToyEVDoSScenario.cs[0].wlan[0].mac.dcf.channelAccess.inProgressFrames queueLength:timeavg 3.0269498134405e-006
attr interpolationmode sample-hold
attr source "count(packetEnqueued) - count(packetDequeued)"
attr title "queue length, timeavg"
scalar ToyEVDoSScenario.cs[0].wlan[0].mac.dcf.channelAccess.contention stateChanged:count 119318
attr interpolationmode none
attr title "contention state changed, count"
scalar ToyEVDoSScenario.cs[0].wlan[0].mac.dcf.channelAccess.contention channelAccessGranted:count 10
attr title "channel access granted, count"
scalar ToyEVDoSScenario.cs[0].wlan[0].mac.dcf.channelAccess channelOwnershipChanged:count 20
attr interpolationmode sample-hold
attr title "channel ownership, count"
scalar ToyEVDoSScenario.cs[0].wlan[0].mac.dcf.originatorMacDataService packetAggregated:count 0
attr title "packets aggregated, count"
scalar ToyEVDoSScenario.cs[0].wlan[0].mac.dcf.originatorMacDataService packetFragmented:count 0
attr title "packets fragmented, count"
scalar ToyEVDoSScenario.cs[0].wlan[0].mac.dcf.recipientMacDataService packetDropDuplicateDetected:count 0
attr interpolationmode none
attr source packetDropReasonIsDuplicateDetected(packetDropped)
attr title "packet drops: duplicate detected, count"
scalar ToyEVDoSScenario.cs[0].wlan[0].mac.dcf.recipientMacDataService packetDropDuplicateDetected:sum(packetBytes) 0
attr interpolationmode none
attr source packetDropReasonIsDuplicateDetected(packetDropped)
attr title "packet drops: duplicate detected, sum(packetBytes)"
scalar ToyEVDoSScenario.cs[0].wlan[0].mac.dcf.recipientMacDataService packetDeaggregated:count 0
attr title "packets deaggregated, count"
scalar ToyEVDoSScenario.cs[0].wlan[0].mac.dcf.recipientMacDataService packetDefragmented:count 28258
attr title "packets defragmented, count"
scalar ToyEVDoSScenario.cs[0].wlan[0].mac.dcf.recoveryProcedure retryLimitReached:count 0
attr title "retry limit reached, count"
scalar ToyEVDoSScenario.cs[0].wlan[0].mac.dcf packetReceivedFromPeer:count 29809
attr interpolationmode none
attr title "packets received, count"
scalar ToyEVDoSScenario.cs[0].wlan[0].mac.dcf packetReceivedFromPeer:sum(packetBytes) 25888179
attr interpolationmode none
attr title "packets received, sum(packetBytes)"
scalar ToyEVDoSScenario.cs[0].wlan[0].mac.dcf packetReceivedFromPeerUnicast:count 0
attr interpolationmode none
attr source ieee80211Unicast(packetReceivedFromPeer)
attr title "packets received: unicast, count"
scalar ToyEVDoSScenario.cs[0].wlan[0].mac.dcf packetReceivedFromPeerUnicast:sum(packetBytes) 0
attr interpolationmode none
attr source ieee80211Unicast(packetReceivedFromPeer)
attr title "packets received: unicast, sum(packetBytes)"
scalar ToyEVDoSScenario.cs[0].wlan[0].mac.dcf packetReceivedFromPeerMulticast:count 29809
attr interpolationmode none
attr source ieee80211Multicast(packetReceivedFromPeer)
attr title "packets received: multicast, count"
scalar ToyEVDoSScenario.cs[0].wlan[0].mac.dcf packetReceivedFromPeerMulticast:sum(packetBytes) 25888179
attr interpolationmode none
attr source ieee80211Multicast(packetReceivedFromPeer)
attr title "packets received: multicast, sum(packetBytes)"
scalar ToyEVDoSScenario.cs[0].wlan[0].mac.dcf packetReceivedFromPeerBroadcast:count 0
attr interpolationmode none
attr source ieee80211Broadcast(packetReceivedFromPeer)
attr title "packets received: broadcast, count"
scalar ToyEVDoSScenario.cs[0].wlan[0].mac.dcf packetReceivedFromPeerBroadcast:sum(packetBytes) 0
attr interpolationmode none
attr source ieee80211Broadcast(packetReceivedFromPeer)
attr title "packets received: broadcast, sum(packetBytes)"
scalar ToyEVDoSScenario.cs[0].wlan[0].mac.dcf packetReceivedFromPeerWithRetry:count 0
attr interpolationmode none
attr source ieee80211Retry(packetReceivedFromPeer)
attr title "packets received: with retry, count"
scalar ToyEVDoSScenario.cs[0].wlan[0].mac.dcf packetReceivedFromPeerWithRetry:sum(packetBytes) 0
attr interpolationmode none
attr source ieee80211Retry(packetReceivedFromPeer)
attr title "packets received: with retry, sum(packetBytes)"
scalar ToyEVDoSScenario.cs[0].wlan[0].mac.dcf packetReceivedFromPeerWithoutRetry:count 29809
attr interpolationmode none
attr source ieee80211NotRetry(packetReceivedFromPeer)
attr title "packets received: without retry, count"
scalar ToyEVDoSScenario.cs[0].wlan[0].mac.dcf packetReceivedFromPeerWithoutRetry:sum(packetBytes) 25888179
attr interpolationmode none
attr source ieee80211NotRetry(packetReceivedFromPeer)
attr title "packets received: without retry, sum(packetBytes)"
scalar ToyEVDoSScenario.cs[0].wlan[0].mac.dcf packetSentToPeer:count 10
attr interpolationmode none
attr title "packets sent, count"
scalar ToyEVDoSScenario.cs[0].wlan[0].mac.dcf packetSentToPeer:sum(packetBytes) 1640
attr interpolationmode none
attr title "packets sent, sum(packetBytes)"
scalar ToyEVDoSScenario.cs[0].wlan[0].mac.dcf packetSentToPeerUnicast:count 0
attr interpolationmode none
attr source ieee80211Unicast(packetSentToPeer)
attr title "packets sent: unicast, count"
scalar ToyEVDoSScenario.cs[0].wlan[0].mac.dcf packetSentToPeerUnicast:sum(packetBytes) 0
attr interpolationmode none
attr source ieee80211Unicast(packetSentToPeer)
attr title "packets sent: unicast, sum(packetBytes)"
scalar ToyEVDoSScenario.cs[0].wlan[0].mac.dcf packetSentToPeerMulticast:count 10
attr interpolationmode none
attr source ieee80211Multicast(packetSentToPeer)
attr title "packets sent: multicast, count"
scalar ToyEVDoSScenario.cs[0].wlan[0].mac.dcf packetSentToPeerMulticast:sum(packetBytes) 1640
attr interpolationmode none
attr source ieee80211Multicast(packetSentToPeer)
attr title "packets sent: multicast, sum(packetBytes)"
scalar ToyEVDoSScenario.cs[0].wlan[0].mac.dcf packetSentToPeerBroadcast:count 0
attr interpolationmode none
attr source ieee80211Broadcast(packetSentToPeer)
attr title "packets sent: broadcast , count"
scalar ToyEVDoSScenario.cs[0].wlan[0].mac.dcf packetSentToPeerBroadcast:sum(packetBytes) 0
attr interpolationmode none
attr source ieee80211Broadcast(packetSentToPeer)
attr title "packets sent: broadcast , sum(packetBytes)"
scalar ToyEVDoSScenario.cs[0].wlan[0].mac.dcf packetSentToPeerWithRetry:count 0
attr interpolationmode none
attr source ieee80211Retry(packetSentToPeer)
attr title "packets sent: with retry, count"
scalar ToyEVDoSScenario.cs[0].wlan[0].mac.dcf packetSentToPeerWithRetry:sum(packetBytes) 0
attr interpolationmode none
attr source ieee80211Retry(packetSentToPeer)
attr title "packets sent: with retry, sum(packetBytes)"
scalar ToyEVDoSScenario.cs[0].wlan[0].mac.dcf packetSentToPeerWithoutRetry:count 10
attr interpolationmode none
attr source ieee80211NotRetry(packetSentToPeer)
attr title "packets sent: without retry, count"
scalar ToyEVDoSScenario.cs[0].wlan[0].mac.dcf packetSentToPeerWithoutRetry:sum(packetBytes) 1640
attr interpolationmode none
attr source ieee80211NotRetry(packetSentToPeer)
attr title "packets sent: without retry, sum(packetBytes)"
scalar ToyEVDoSScenario.cs[0].wlan[0].mac.dcf packetDrop:count 0
attr interpolationmode none
attr source packetDropped
attr title "packet drops, count"
scalar ToyEVDoSScenario.cs[0].wlan[0].mac.dcf packetDrop:sum(packetBytes) 0
attr interpolationmode none
attr source packetDropped
attr title "packet drops, sum(packetBytes)"
scalar ToyEVDoSScenario.cs[0].wlan[0].mac.dcf packetDropNotAddressedToUs:count 0
attr interpolationmode none
attr source packetDropReasonIsNotAddressedToUs(packetDropped)
attr title "packet drops: not addressed to us, count"
scalar ToyEVDoSScenario.cs[0].wlan[0].mac.dcf packetDropNotAddressedToUs:sum(packetBytes) 0
attr interpolationmode none
attr source packetDropReasonIsNotAddressedToUs(packetDropped)
attr title "packet drops: not addressed to us, sum(packetBytes)"
scalar ToyEVDoSScenario.cs[0].wlan[0].mac.dcf packetDropQueueOverflow:count 0
attr interpolationmode none
attr source packetDropReasonIsQueueOverflow(packetDropped)
attr title "packet drops: queue overflow, count"
scalar ToyEVDoSScenario.cs[0].wlan[0].mac.dcf packetDropQueueOverflow:sum(packetBytes) 0
attr interpolationmode none
attr source packetDropReasonIsQueueOverflow(packetDropped)
attr title "packet drops: queue overflow, sum(packetBytes)"
scalar ToyEVDoSScenario.cs[0].wlan[0].mac.dcf packetDropRetryLimitReached:count 0
attr interpolationmode none
attr source packetDropReasonIsRetryLimitReached(packetDropped)
attr title "packet drops: retry limit reached, count"
scalar ToyEVDoSScenario.cs[0].wlan[0].mac.dcf packetDropRetryLimitReached:sum(packetBytes) 0
attr interpolationmode none
attr source packetDropReasonIsRetryLimitReached(packetDropped)
attr title "packet drops: retry limit reached, sum(packetBytes)"
scalar ToyEVDoSScenario.cs[0].wlan[0].mac.dcf linkBroken:count 0
attr interpolationmode none
attr title "link breaks, count"
scalar ToyEVDoSScenario.cs[0].wlan[0].mac.dcf frameSequenceFinished:count 10
attr title "finished frame sequences, count"
statistic ToyEVDoSScenario.cs[0].wlan[0].mac.dcf frameSequenceDuration:histogram
field count 10
field mean 8.2e-005
field stddev 0
field min 8.2e-005
field max 8.2e-005
field sum 0.00082
field sqrsum 6.724e-008
attr source frameSequenceDuration(frameSequenceFinished)
attr title "frame sequence durations, histogram"
bin	-inf	0
bin	0	10
bin	0.01	0
bin	0.02	0
bin	0.03	0
bin	0.04	0
bin	0.05	0
bin	0.06	0
bin	0.07	0
bin	0.08	0
bin	0.09	0
bin	0.1	0
bin	0.11	0
bin	0.12	0
bin	0.13	0
bin	0.14	0
bin	0.15	0
bin	0.16	0
bin	0.17	0
bin	0.18	0
bin	0.19	0
bin	0.2	0
bin	0.21	0
bin	0.22	0
bin	0.23	0
bin	0.24	0
bin	0.25	0
bin	0.26	0
bin	0.27	0
bin	0.28	0
bin	0.29	0
bin	0.3	0
bin	0.31	0
bin	0.32	0
bin	0.33	0
bin	0.34	0
bin	0.35	0
bin	0.36	0
bin	0.37	0
bin	0.38	0
bin	0.39	0
bin	0.4	0
bin	0.41	0
bin	0.42	0
bin	0.43	0
bin	0.44	0
bin	0.45	0
bin	0.46	0
bin	0.47	0
bin	0.48	0
bin	0.49	0
bin	0.5	0
bin	0.51	0
statistic ToyEVDoSScenario.cs[0].wlan[0].mac.dcf frameSequenceNumPackets:histogram
field count 10
field mean 1
field stddev 0
field min 1
field max 1
field sum 10
field sqrsum 10
attr source frameSequenceNumPackets(frameSequenceFinished)
attr title "frame sequences: number of packets, histogram"
bin	-inf	0
bin	0	0
bin	1	10
bin	2	0
scalar ToyEVDoSScenario.cs[0].wlan[0].mac packetReceivedFromLower:count 29809
attr interpolationmode none
attr title "packets received from lower layer, count"
scalar ToyEVDoSScenario.cs[0].wlan[0].mac packetReceivedFromLower:sum(packetBytes) 25888179
attr interpolationmode none
attr title "packets received from lower layer, sum(packetBytes)"
scalar ToyEVDoSScenario.cs[0].wlan[0].mac packetSentToLower:count 10
attr interpolationmode none
attr title "packets sent to lower layer, count"
scalar ToyEVDoSScenario.cs[0].wlan[0].mac packetSentToLower:sum(packetBytes) 1640
attr interpolationmode none
attr title "packets sent to lower layer, sum(packetBytes)"
scalar ToyEVDoSScenario.cs[0].wlan[0].mac packetReceivedFromUpper:count 10
attr interpolationmode none
attr title "packets received from upper layer, count"
scalar ToyEVDoSScenario.cs[0].wlan[0].mac packetReceivedFromUpper:sum(packetBytes) 1360
attr interpolationmode none
attr title "packets received from upper layer, sum(packetBytes)"
scalar ToyEVDoSScenario.cs[0].wlan[0].mac packetSentToUpper:count 28258
attr interpolationmode none
attr title "packets sent to upper layer, count"
scalar ToyEVDoSScenario.cs[0].wlan[0].mac packetSentToUpper:sum(packetBytes) 25053527
attr interpolationmode none
attr title "packets sent to upper layer, sum(packetBytes)"
scalar ToyEVDoSScenario.cs[0].wlan[0].mac packetDrop:count 0
attr interpolationmode none
attr source packetDropped
attr title "packet drops, count"
scalar ToyEVDoSScenario.cs[0].wlan[0].mac packetDrop:sum(packetBytes) 0
attr interpolationmode none
attr source packetDropped
attr title "packet drops, sum(packetBytes)"
scalar ToyEVDoSScenario.cs[0].wlan[0].mac packetDropIncorrectlyReceived:count 0
attr interpolationmode none
attr source packetDropReasonIsIncorrectlyReceived(packetDropped)
attr title "packet drops: incorrectly received, count"
scalar ToyEVDoSScenario.cs[0].wlan[0].mac packetDropIncorrectlyReceived:sum(packetBytes) 0
attr interpolationmode none
attr source packetDropReasonIsIncorrectlyReceived(packetDropped)
attr title "packet drops: incorrectly received, sum(packetBytes)"
scalar ToyEVDoSScenario.cs[0].wlan[0].mac packetDropNotAddressedToUs:count 0
attr interpolationmode none
attr source packetDropReasonIsNotAddressedToUs(packetDropped)
attr title "packet drops: not addressed to us, count"
scalar ToyEVDoSScenario.cs[0].wlan[0].mac packetDropNotAddressedToUs:sum(packetBytes) 0
attr interpolationmode none
attr source packetDropReasonIsNotAddressedToUs(packetDropped)
attr title "packet drops: not addressed to us, sum(packetBytes)"
scalar ToyEVDoSScenario.cs[0].wlan[0].mac packetDropQueueOverflow:count 0
attr interpolationmode none
attr source packetDropReasonIsQueueOverflow(packetDropped)
attr title "packet drops: queue overflow, count"
scalar ToyEVDoSScenario.cs[0].wlan[0].mac packetDropQueueOverflow:sum(packetBytes) 0
attr interpolationmode none
attr source packetDropReasonIsQueueOverflow(packetDropped)
attr title "packet drops: queue overflow, sum(packetBytes)"
scalar ToyEVDoSScenario.cs[0].wlan[0].mac packetDropRetryLimitReached:count 0
attr interpolationmode none
attr source packetDropReasonIsRetryLimitReached(packetDropped)
attr title "packet drops: retry limit reached, count"
scalar ToyEVDoSScenario.cs[0].wlan[0].mac packetDropRetryLimitReached:sum(packetBytes) 0
attr interpolationmode none
attr source packetDropReasonIsRetryLimitReached(packetDropped)
attr title "packet drops: retry limit reached, sum(packetBytes)"
scalar ToyEVDoSScenario.cs[0].wlan[0].mac packetDropDuplicateDetected:count 0
attr interpolationmode none
attr source packetDropReasonIsDuplicateDetected(packetDropped)
attr title "packet drops: duplicate detected, count"
scalar ToyEVDoSScenario.cs[0].wlan[0].mac packetDropDuplicateDetected:sum(packetBytes) 0
attr interpolationmode none
attr source packetDropReasonIsDuplicateDetected(packetDropped)
attr title "packet drops: duplicate detected, sum(packetBytes)"
scalar ToyEVDoSScenario.cs[0].wlan[0].mac packetDropOther:count 0
attr interpolationmode none
attr source packetDropReasonIsOther(packetDropped)
attr title "packet drops: other, count"
scalar ToyEVDoSScenario.cs[0].wlan[0].mac packetDropOther:sum(packetBytes) 0
attr interpolationmode none
attr source packetDropReasonIsOther(packetDropped)
attr title "packet drops: other, sum(packetBytes)"
scalar ToyEVDoSScenario.cs[0].wlan[0].mac linkBroken:count 0
attr interpolationmode none
attr title "link breaks, count"
statistic ToyEVDoSScenario.cs[0].wlan[0].radio minSnir:histogram
field count 29809
field mean 6643.2712998625
field stddev 12928.275495086
field min 402.63813238538
field max 59887.968678576
field sum 198029274.1776
field sqrsum 6297680472985.1
attr source minimumSnir(packetSentToUpper)
attr title "Min SNIR, histogram"
bin	-inf	0
bin	365	18713
bin	1645	2476
bin	2925	1278
bin	4205	759
bin	5485	641
bin	6765	424
bin	8045	333
bin	9325	263
bin	10605	318
bin	11885	156
bin	13165	266
bin	14445	215
bin	15725	212
bin	17005	208
bin	18285	162
bin	19565	218
bin	20845	104
bin	22125	157
bin	23405	108
bin	24685	107
bin	25965	54
bin	27245	107
bin	28525	109
bin	29805	1
bin	31085	103
bin	32365	260
bin	33645	57
bin	34925	284
bin	36205	55
bin	37485	110
bin	38765	106
bin	40045	1
bin	41325	106
bin	42605	53
bin	43885	105
bin	45165	55
bin	46445	54
bin	47725	53
bin	49005	107
bin	50285	109
bin	51565	52
bin	52845	56
bin	54125	106
bin	55405	107
bin	56685	104
bin	57965	158
bin	59245	219
bin	60525	0
statistic ToyEVDoSScenario.cs[0].wlan[0].radio packetErrorRate:histogram
field count 29809
field mean 0
field stddev 0
field min 0
field max 0
field sum 0
field sqrsum 0
attr source packetErrorRate(packetSentToUpper)
attr title "Packet error rate, histogram"
bin	-inf	0
bin	-0.5	0
bin	-0.48	0
bin	-0.46	0
bin	-0.44	0
bin	-0.42	0
bin	-0.4	0
bin	-0.38	0
bin	-0.36	0
bin	-0.34	0
bin	-0.32	0
bin	-0.3	0
bin	-0.28	0
bin	-0.26	0
bin	-0.24	0
bin	-0.22	0
bin	-0.2	0
bin	-0.18	0
bin	-0.16	0
bin	-0.14	0
bin	-0.12	0
bin	-0.1	0
bin	-0.08	0
bin	-0.06	0
bin	-0.04	0
bin	-0.02	0
bin	0	29809
bin	0.02	0
bin	0.04	0
bin	0.06	0
bin	0.08	0
bin	0.1	0
bin	0.12	0
bin	0.14	0
bin	0.16	0
bin	0.18	0
bin	0.2	0
bin	0.22	0
bin	0.24	0
bin	0.26	0
bin	0.28	0
bin	0.3	0
bin	0.32	0
bin	0.34	0
bin	0.36	0
bin	0.38	0
bin	0.4	0
bin	0.42	0
bin	0.44	0
bin	0.46	0
bin	0.48	0
bin	0.5	0
statistic ToyEVDoSScenario.cs[0].wlan[0].radio bitErrorRate:histogram
field count 0
field mean nan
field stddev nan
field min nan
field max nan
field sum 0
field sqrsum 0
attr source bitErrorRate(packetSentToUpper)
attr title "Bit error rate, histogram"
bin	-inf	0
bin	0	0
bin	1	0
statistic ToyEVDoSScenario.cs[0].wlan[0].radio symbolErrorRate:histogram
field count 0
field mean nan
field stddev nan
field min nan
field max nan
field sum 0
field sqrsum 0
attr source symbolErrorRate(packetSentToUpper)
attr title "Symbol error rate, histogram"
bin	-inf	0
bin	0	0
bin	1	0
scalar ToyEVDoSScenario.cs[0].wlan[0].radio transmissionState:count 40
attr interpolationmode sample-hold
attr source transmissionStateChanged
attr title "Radio transmission state, count"
scalar ToyEVDoSScenario.cs[0].wlan[0].radio receptionState:count 59639
attr interpolationmode sample-hold
attr source receptionStateChanged
attr title "Radio reception state, count"
scalar ToyEVDoSScenario.cs[0].wlan[0].radio radioMode:count 23
attr interpolationmode sample-hold
attr source radioModeChanged
attr title "Radio mode, count"
statistic ToyEVDoSScenario.cs[0].wlan[0].radio radioChannel:histogram
field count 1
field mean 3
field stddev nan
field min 3
field max 3
field sum 3
field sqrsum 9
attr interpolationmode sample-hold
attr source radioChannelChanged
attr title "Radio channel, histogram"
bin	-inf	0
bin	2	0
bin	3	1
bin	4	0
scalar ToyEVDoSScenario.cs[0].ipv4.ip packetDropAddressResolutionFailed:count 0
attr interpolationmode none
attr source packetDropReasonIsAddressResolutionFailed(packetDropped)
attr title "packet drop: address resolution failed, count"
scalar ToyEVDoSScenario.cs[0].ipv4.ip packetDropAddressResolutionFailed:sum(packetBytes) 0
attr interpolationmode none
attr source packetDropReasonIsAddressResolutionFailed(packetDropped)
attr title "packet drop: address resolution failed, sum(packetBytes)"
scalar ToyEVDoSScenario.cs[0].ipv4.ip packetDropHopLimitReached:count 0
attr interpolationmode none
attr source packetDropReasonIsHopLimitReached(packetDropped)
attr title "packet drop: hop limit reached, count"
scalar ToyEVDoSScenario.cs[0].ipv4.ip packetDropHopLimitReached:sum(packetBytes) 0
attr interpolationmode none
attr source packetDropReasonIsHopLimitReached(packetDropped)
attr title "packet drop: hop limit reached, sum(packetBytes)"
scalar ToyEVDoSScenario.cs[0].ipv4.ip packetDropForwardingDisabled:count 0
attr interpolationmode none
attr source packetDropReasonIsForwardingDisabled(packetDropped)
attr title "packet drop: forwarding disabled, count"
scalar ToyEVDoSScenario.cs[0].ipv4.ip packetDropForwardingDisabled:sum(packetBytes) 0
attr interpolationmode none
attr source packetDropReasonIsForwardingDisabled(packetDropped)
attr title "packet drop: forwarding disabled, sum(packetBytes)"
scalar ToyEVDoSScenario.cs[0].ipv4.ip packetDropNoInterfaceFound:count 0
attr interpolationmode none
attr source packetDropReasonIsNoInterfaceFound(packetDropped)
attr title "packet drop: no interface found, count"
scalar ToyEVDoSScenario.cs[0].ipv4.ip packetDropNoInterfaceFound:sum(packetBytes) 0
attr interpolationmode none
attr source packetDropReasonIsNoInterfaceFound(packetDropped)
attr title "packet drop: no interface found, sum(packetBytes)"
scalar ToyEVDoSScenario.cs[0].ipv4.ip packetDropNoRouteFound:count 0
attr interpolationmode none
attr source packetDropReasonIsNoRouteFound(packetDropped)
attr title "packet drop: no route found, count"
scalar ToyEVDoSScenario.cs[0].ipv4.ip packetDropNoRouteFound:sum(packetBytes) 0
attr interpolationmode none
attr source packetDropReasonIsNoRouteFound(packetDropped)
attr title "packet drop: no route found, sum(packetBytes)"
scalar ToyEVDoSScenario.cs[0].ipv4.ip packetDropUndefined:count 0
attr interpolationmode none
attr source packetDropReasonIsUndefined(packetDropped)
attr title "packet drop: undefined, count"
scalar ToyEVDoSScenario.cs[0].ipv4.ip packetDropUndefined:sum(packetBytes) 0
attr interpolationmode none
attr source packetDropReasonIsUndefined(packetDropped)
attr title "packet drop: undefined, sum(packetBytes)"
scalar ToyEVDoSScenario.cs[0].ipv4.arp arpReplySent:count 0
attr source arpReplySent
attr title "ARP replies sent, count"
scalar ToyEVDoSScenario.cs[0].ipv4.arp arpReplySent:sum(packetBytes) 0
attr source arpReplySent
attr title "ARP replies sent, sum(packetBytes)"
scalar ToyEVDoSScenario.cs[0].ipv4.arp arpRequestSent:count 0
attr source arpRequestSent
attr title "ARP request sent, count"
scalar ToyEVDoSScenario.cs[0].ipv4.arp arpRequestSent:sum(packetBytes) 0
attr source arpRequestSent
attr title "ARP request sent, sum(packetBytes)"
scalar ToyEVDoSScenario.cs[0].ipv4.arp arpResolutionFailed:count 0
attr title "ARP failed resolutions, count"
scalar ToyEVDoSScenario.cs[0].ipv4.arp arpResolutionCompleted:count 0
attr title "ARP completed resolutions, count"
scalar ToyEVDoSScenario.cs[0].ipv4.arp arpResolutionInitiated:count 0
attr title "ARP initiated resolutions, count"
scalar ToyEVDoSScenario.cs[0].udp packetReceived:count 28268
attr interpolationmode none
attr source packetReceived
attr title "packets received, count"
scalar ToyEVDoSScenario.cs[0].udp packetReceived:sum(packetBytes) 24263383
attr interpolationmode none
attr source packetReceived
attr title "packets received, sum(packetBytes)"
scalar ToyEVDoSScenario.cs[0].udp packetSent:count 10
attr interpolationmode none
attr source packetSent
attr title "packets sent, count"
scalar ToyEVDoSScenario.cs[0].udp packetSent:sum(packetBytes) 1080
attr interpolationmode none
attr source packetSent
attr title "packets sent, sum(packetBytes)"
scalar ToyEVDoSScenario.cs[0].udp passedUpPk:count 28268
attr interpolationmode none
attr source packetSentToUpper
attr title "packets passed up, count"
scalar ToyEVDoSScenario.cs[0].udp droppedPkWrongPort:count 0
attr interpolationmode none
attr source packetDropReasonIsNoPortFound(packetDropped)
attr title "packets dropped (wrong port), count"
scalar ToyEVDoSScenario.cs[0].udp droppedPkBadChecksum:count 0
attr interpolationmode none
attr source packetDropReasonIsIncorrectlyReceived(packetDropped)
attr title "packets dropped (checksum error), count"
scalar ToyEVDoSScenario.cs[0].app[0] packetsReceived 28268
scalar ToyEVDoSScenario.cs[0].app[0] chargeRequestsReceived 10
scalar ToyEVDoSScenario.cs[0].app[0] totalEnergyConsumed 0.00044519360960816
scalar ToyEVDoSScenario.cs[0].app[0] totalEnergyDelivered 460
scalar ToyEVDoSScenario.cs[0].app[0] finalCSBatteryWh 50000
scalar ToyEVDoSScenario.cs[0].app[0] finalCSSoC 1
scalar ToyEVDoSScenario.cs[0].app[0] avgPacketRate 94.226666666667
scalar ToyEVDoSScenario.cs[0].app[0] chargeRequestReceived:count 10
statistic ToyEVDoSScenario.cs[0].app[0] txDuration:stats
field count 28268
field mean 0.0011337785481817
field stddev 0.00052947518318135
field min 6.6666666666667e-005
field max 0.002
field sum 32.049652
field sqrsum 0.044261690903111
statistic ToyEVDoSScenario.cs[0].app[0] energyConsumption:stats
field count 28268
field mean 1.5749031045994e-008
field stddev 7.5078862018388e-009
field min 9.385060012789e-010
field max 3.1827423819211e-008
field sum 0.00044519360960816
field sqrsum 8.6047322761942e-012
statistic ToyEVDoSScenario.cs[0].app[0] interArrivalTime:histogram
field count 28268
field mean 0.010587254032788
field stddev 0.076393208170151
field min 0
field max 6.374541696107
field sum 299.28049699886
field sqrsum 168.13257301753
bin	-inf	0
bin	0	27723
bin	0.1	71
bin	0.2	114
bin	0.3	95
bin	0.4	86
bin	0.5	55
bin	0.6	42
bin	0.7	34
bin	0.8	31
bin	0.9	16
bin	1	0
bin	1.1	0
bin	1.2	0
bin	1.3	0
bin	1.4	0
bin	1.5	0
bin	1.6	0
bin	1.7	0
bin	1.8	0
bin	1.9	0
bin	2	0
bin	2.1	0
bin	2.2	0
bin	2.3	0
bin	2.4	0
bin	2.5	0
bin	2.6	0
bin	2.7	0
bin	2.8	0
bin	2.9	0
bin	3	0
bin	3.1	0
bin	3.2	0
bin	3.3	0
bin	3.4	0
bin	3.5	0
bin	3.6	0
bin	3.7	0
bin	3.8	0
bin	3.9	0
bin	4	0
bin	4.1	0
bin	4.2	0
bin	4.3	0
bin	4.4	0
bin	4.5	0
bin	4.6	0
bin	4.7	0
bin	4.8	0
bin	4.9	0
bin	5	0
bin	5.1	0
bin	5.2	0
bin	5.3	0
bin	5.4	0
bin	5.5	0
bin	5.6	0
bin	5.7	0
bin	5.8	0
bin	5.9	0
bin	6	0
bin	6.1	0
bin	6.2	0
bin	6.3	1
bin	6.4	0
bin	6.5	0
bin	6.6	0
bin	6.7	0
bin	6.8	0
bin	6.9	0
bin	7	0
bin	7.1	0
bin	7.2	0
bin	7.3	0
bin	7.4	0
bin	7.5	0
bin	7.6	0
bin	7.7	0
bin	7.8	0
bin	7.9	0
bin	8	0
statistic ToyEVDoSScenario.cs[0].app[0] packetSize:histogram
field count 28268
field mean 850.33391113627
field stddev 397.10638738602
field min 50
field max 1500
field sum 24037239
field sqrsum 24897201133
bin	-inf	0
bin	0	0
bin	20	0
bin	40	2
bin	60	0
bin	80	0
bin	100	20
bin	120	0
bin	140	0
bin	160	0
bin	180	0
bin	200	586
bin	220	628
bin	240	627
bin	260	615
bin	280	603
bin	300	631
bin	320	601
bin	340	616
bin	360	591
bin	380	639
bin	400	34
bin	420	0
bin	440	0
bin	460	0
bin	480	0
bin	500	513
bin	520	469
bin	540	472
bin	560	480
bin	580	513
bin	600	476
bin	620	479
bin	640	499
bin	660	490
bin	680	548
bin	700	478
bin	720	478
bin	740	497
bin	760	465
bin	780	484
bin	800	491
bin	820	485
bin	840	491
bin	860	465
bin	880	494
bin	900	20
bin	920	0
bin	940	0
bin	960	0
bin	980	0
bin	1000	482
bin	1020	503
bin	1040	509
bin	1060	477
bin	1080	487
bin	1100	529
bin	1120	520
bin	1140	508
bin	1160	480
bin	1180	502
bin	1200	499
bin	1220	478
bin	1240	501
bin	1260	486
bin	1280	491
bin	1300	462
bin	1320	446
bin	1340	497
bin	1360	485
bin	1380	503
bin	1400	461
bin	1420	504
bin	1440	455
bin	1460	511
bin	1480	486
bin	1500	26
bin	1520	0
bin	1540	0
bin	1560	0
bin	1580	0
bin	1600	0
bin	1620	0
bin	1640	0
bin	1660	0
bin	1680	0
bin	1700	0
bin	1720	0
bin	1740	0
bin	1760	0
bin	1780	0
bin	1800	0
scalar ToyEVDoSScenario.cs[0].app[0] packetReceived:count 28268
scalar ToyEVDoSScenario.rsu[0].lo[0].lo rcvdPkFromHl:count 0
attr interpolationmode none
attr source packetReceivedFromUpper
attr title "packets received from higher layer, count"
scalar ToyEVDoSScenario.rsu[0].lo[0].lo rcvdPkFromHl:sum(packetBytes) 0
attr interpolationmode none
attr source packetReceivedFromUpper
attr title "packets received from higher layer, sum(packetBytes)"
scalar ToyEVDoSScenario.rsu[0].lo[0].lo passedUpPk:count 0
attr interpolationmode none
attr source packetSentToUpper
attr title "packets passed to higher layer, count"
scalar ToyEVDoSScenario.rsu[0].lo[0].lo passedUpPk:sum(packetBytes) 0
attr interpolationmode none
attr source packetSentToUpper
attr title "packets passed to higher layer, sum(packetBytes)"
scalar ToyEVDoSScenario.rsu[0].wlan[0].mac.dcf.channelAccess.pendingQueue packetPopped:count 0
attr interpolationmode none
attr title "packet popped, count"
scalar ToyEVDoSScenario.rsu[0].wlan[0].mac.dcf.channelAccess.pendingQueue packetPopped:sum(packetBytes) 0
attr interpolationmode none
attr title "packet popped, sum(packetBytes)"
statistic ToyEVDoSScenario.rsu[0].wlan[0].mac.dcf.channelAccess.pendingQueue queueingTime:histogram
field count 0
field mean nan
field stddev nan
field min nan
field max nan
field sum 0
field sqrsum 0
attr interpolationmode none
attr source queueingTime(packetPopped)
attr title "queueing times, histogram"
attr unit s
bin	-inf	0
bin	0	0
bin	1	0
scalar ToyEVDoSScenario.rsu[0].wlan[0].mac.dcf.channelAccess.pendingQueue queueLength:max nan
attr interpolationmode sample-hold
attr source "count(packetPushed) - count(packetPopped) - count(packetRemoved) - count(packetDropped)"
attr title "queue length, max"
scalar ToyEVDoSScenario.rsu[0].wlan[0].mac.dcf.channelAccess.pendingQueue queueLength:timeavg nan
attr interpolationmode sample-hold
attr source "count(packetPushed) - count(packetPopped) - count(packetRemoved) - count(packetDropped)"
attr title "queue length, timeavg"
scalar ToyEVDoSScenario.rsu[0].wlan[0].mac.dcf.channelAccess.pendingQueue packetPushed:count 0
attr interpolationmode none
attr title "packet pushed, count"
scalar ToyEVDoSScenario.rsu[0].wlan[0].mac.dcf.channelAccess.pendingQueue packetPushed:sum(packetBytes) 0
attr interpolationmode none
attr title "packet pushed, sum(packetBytes)"
scalar ToyEVDoSScenario.rsu[0].wlan[0].mac.dcf.channelAccess.pendingQueue packetDropQueueOverflow:count 0
attr interpolationmode none
attr source packetDropReasonIsQueueOverflow(packetDropped)
attr title "packet drops: queue overflow, count"
scalar ToyEVDoSScenario.rsu[0].wlan[0].mac.dcf.channelAccess.pendingQueue packetDropQueueOverflow:sum(packetBytes) 0
attr interpolationmode none
attr source packetDropReasonIsQueueOverflow(packetDropped)
attr title "packet drops: queue overflow, sum(packetBytes)"
scalar ToyEVDoSScenario.rsu[0].wlan[0].mac.dcf.channelAccess.pendingQueue packetRemoved:count 0
attr interpolationmode none
attr title "packets removed, count"
scalar ToyEVDoSScenario.rsu[0].wlan[0].mac.dcf.channelAccess.pendingQueue packetRemoved:sum(packetBytes) 0
attr interpolationmode none
attr title "packets removed, sum(packetBytes)"
statistic ToyEVDoSScenario.rsu[0].wlan[0].mac.dcf.channelAccess.inProgressFrames queueingTime:histogram
field count 0
field mean nan
field stddev nan
field min nan
field max nan
field sum 0
field sqrsum 0
attr interpolationmode none
attr source queueingTime(packetDequeued)
attr title "queueing times, histogram"
bin	-inf	0
bin	0	0
bin	1	0
scalar ToyEVDoSScenario.rsu[0].wlan[0].mac.dcf.channelAccess.inProgressFrames queueLength:max nan
attr interpolationmode sample-hold
attr source "count(packetEnqueued) - count(packetDequeued)"
attr title "queue length, max"
scalar ToyEVDoSScenario.rsu[0].wlan[0].mac.dcf.channelAccess.inProgressFrames queueLength:timeavg nan
attr interpolationmode sample-hold
attr source "count(packetEnqueued) - count(packetDequeued)"
attr title "queue length, timeavg"
scalar ToyEVDoSScenario.rsu[0].wlan[0].mac.dcf.channelAccess.contention stateChanged:count 119278
attr interpolationmode none
attr title "contention state changed, count"
scalar ToyEVDoSScenario.rsu[0].wlan[0].mac.dcf.channelAccess.contention channelAccessGranted:count 0
[...]
attr title "packets sent: with retry, sum(packetBytes)"
scalar ToyEVDoSScenario.ev[0].wlan[0].mac.dcf packetSentToPeerWithoutRetry:count 29472
attr interpolationmode none
attr source ieee80211NotRetry(packetSentToPeer)
attr title "packets sent: without retry, count"
scalar ToyEVDoSScenario.ev[0].wlan[0].mac.dcf packetSentToPeerWithoutRetry:sum(packetBytes) 25764988
attr interpolationmode none
attr source ieee80211NotRetry(packetSentToPeer)
attr title "packets sent: without retry, sum(packetBytes)"
scalar ToyEVDoSScenario.ev[0].wlan[0].mac.dcf packetDrop:count 0
attr interpolationmode none
attr source packetDropped
attr title "packet drops, count"
scalar ToyEVDoSScenario.ev[0].wlan[0].mac.dcf packetDrop:sum(packetBytes) 0
attr interpolationmode none
attr source packetDropped
attr title "packet drops, sum(packetBytes)"
scalar ToyEVDoSScenario.ev[0].wlan[0].mac.dcf packetDropNotAddressedToUs:count 0
attr interpolationmode none
attr source packetDropReasonIsNotAddressedToUs(packetDropped)
attr title "packet drops: not addressed to us, count"
scalar ToyEVDoSScenario.ev[0].wlan[0].mac.dcf packetDropNotAddressedToUs:sum(packetBytes) 0
attr interpolationmode none
attr source packetDropReasonIsNotAddressedToUs(packetDropped)
attr title "packet drops: not addressed to us, sum(packetBytes)"
scalar ToyEVDoSScenario.ev[0].wlan[0].mac.dcf packetDropQueueOverflow:count 0
attr interpolationmode none
attr source packetDropReasonIsQueueOverflow(packetDropped)
attr title "packet drops: queue overflow, count"
scalar ToyEVDoSScenario.ev[0].wlan[0].mac.dcf packetDropQueueOverflow:sum(packetBytes) 0
attr interpolationmode none
attr source packetDropReasonIsQueueOverflow(packetDropped)
attr title "packet drops: queue overflow, sum(packetBytes)"
scalar ToyEVDoSScenario.ev[0].wlan[0].mac.dcf packetDropRetryLimitReached:count 0
attr interpolationmode none
attr source packetDropReasonIsRetryLimitReached(packetDropped)
attr title "packet drops: retry limit reached, count"
scalar ToyEVDoSScenario.ev[0].wlan[0].mac.dcf packetDropRetryLimitReached:sum(packetBytes) 0
attr interpolationmode none
attr source packetDropReasonIsRetryLimitReached(packetDropped)
attr title "packet drops: retry limit reached, sum(packetBytes)"
scalar ToyEVDoSScenario.ev[0].wlan[0].mac.dcf linkBroken:count 0
attr interpolationmode none
attr title "link breaks, count"
scalar ToyEVDoSScenario.ev[0].wlan[0].mac.dcf frameSequenceFinished:count 29472
attr title "finished frame sequences, count"
statistic ToyEVDoSScenario.ev[0].wlan[0].mac.dcf frameSequenceDuration:histogram
field count 29472
field mean 0.00032029967426711
field stddev 0.00014239651151516
field min 3.8e-005
field max 0.00053
field sum 9.4398720000002
field sqrsum 0.0036211645119998
attr source frameSequenceDuration(frameSequenceFinished)
attr title "frame sequence durations, histogram"
bin	-inf	0
bin	0	0
bin	1e-005	0
bin	2e-005	0
bin	3e-005	136
bin	4e-005	852
bin	5e-005	563
bin	6e-005	1
bin	7e-005	0
bin	8e-005	9
bin	9e-005	0
bin	0.0001	0
bin	0.00011	286
bin	0.00012	1047
bin	0.00013	701
bin	0.00014	1046
bin	0.00015	706
bin	0.00016	1024
bin	0.00017	664
bin	0.00018	362
bin	0.00019	0
bin	0.0002	0
bin	0.00021	264
bin	0.00022	577
bin	0.00023	857
bin	0.00024	603
bin	0.00025	900
bin	0.00026	554
bin	0.00027	895
bin	0.00028	617
bin	0.00029	892
bin	0.0003	556
bin	0.00031	898
bin	0.00032	866
bin	0.00033	569
bin	0.00034	739
bin	0.00035	0
bin	0.00036	0
bin	0.00037	0
bin	0.00038	633
bin	0.00039	616
bin	0.0004	877
bin	0.00041	615
bin	0.00042	921
bin	0.00043	580
bin	0.00044	913
bin	0.00045	575
bin	0.00046	898
bin	0.00047	581
bin	0.00048	857
bin	0.00049	534
bin	0.0005	589
bin	0.00051	897
bin	0.00052	2202
bin	0.00053	0
bin	0.00054	0
bin	0.00055	0
bin	0.00056	0
bin	0.00057	0
bin	0.00058	0
bin	0.00059	0
bin	0.0006	0
bin	0.00061	0
bin	0.00062	0
bin	0.00063	0
bin	0.00064	0
bin	0.00065	0
bin	0.00066	0
statistic ToyEVDoSScenario.ev[0].wlan[0].mac.dcf frameSequenceNumPackets:histogram
field count 29472
field mean 1
field stddev 0
field min 1
field max 1
field sum 29472
field sqrsum 29472
attr source frameSequenceNumPackets(frameSequenceFinished)
attr title "frame sequences: number of packets, histogram"
bin	-inf	0
bin	0	0
bin	1	29472
bin	2	0
scalar ToyEVDoSScenario.ev[0].wlan[0].mac packetReceivedFromLower:count 347
attr interpolationmode none
attr title "packets received from lower layer, count"
scalar ToyEVDoSScenario.ev[0].wlan[0].mac packetReceivedFromLower:sum(packetBytes) 124831
attr interpolationmode none
attr title "packets received from lower layer, sum(packetBytes)"
scalar ToyEVDoSScenario.ev[0].wlan[0].mac packetSentToLower:count 29472
attr interpolationmode none
attr title "packets sent to lower layer, count"
scalar ToyEVDoSScenario.ev[0].wlan[0].mac packetSentToLower:sum(packetBytes) 25764988
attr interpolationmode none
attr title "packets sent to lower layer, sum(packetBytes)"
scalar ToyEVDoSScenario.ev[0].wlan[0].mac packetReceivedFromUpper:count 27921
attr interpolationmode none
attr title "packets received from upper layer, count"
scalar ToyEVDoSScenario.ev[0].wlan[0].mac packetReceivedFromUpper:sum(packetBytes) 24939772
attr interpolationmode none
attr title "packets received from upper layer, sum(packetBytes)"
scalar ToyEVDoSScenario.ev[0].wlan[0].mac packetSentToUpper:count 347
attr interpolationmode none
attr title "packets sent to upper layer, count"
scalar ToyEVDoSScenario.ev[0].wlan[0].mac packetSentToUpper:sum(packetBytes) 115115
attr interpolationmode none
attr title "packets sent to upper layer, sum(packetBytes)"
scalar ToyEVDoSScenario.ev[0].wlan[0].mac packetDrop:count 0
attr interpolationmode none
attr source packetDropped
attr title "packet drops, count"
scalar ToyEVDoSScenario.ev[0].wlan[0].mac packetDrop:sum(packetBytes) 0
attr interpolationmode none
attr source packetDropped
attr title "packet drops, sum(packetBytes)"
scalar ToyEVDoSScenario.ev[0].wlan[0].mac packetDropIncorrectlyReceived:count 0
attr interpolationmode none
attr source packetDropReasonIsIncorrectlyReceived(packetDropped)
attr title "packet drops: incorrectly received, count"
scalar ToyEVDoSScenario.ev[0].wlan[0].mac packetDropIncorrectlyReceived:sum(packetBytes) 0
attr interpolationmode none
attr source packetDropReasonIsIncorrectlyReceived(packetDropped)
attr title "packet drops: incorrectly received, sum(packetBytes)"
scalar ToyEVDoSScenario.ev[0].wlan[0].mac packetDropNotAddressedToUs:count 0
attr interpolationmode none
attr source packetDropReasonIsNotAddressedToUs(packetDropped)
attr title "packet drops: not addressed to us, count"
scalar ToyEVDoSScenario.ev[0].wlan[0].mac packetDropNotAddressedToUs:sum(packetBytes) 0
attr interpolationmode none
attr source packetDropReasonIsNotAddressedToUs(packetDropped)
attr title "packet drops: not addressed to us, sum(packetBytes)"
scalar ToyEVDoSScenario.ev[0].wlan[0].mac packetDropQueueOverflow:count 0
attr interpolationmode none
attr source packetDropReasonIsQueueOverflow(packetDropped)
attr title "packet drops: queue overflow, count"
scalar ToyEVDoSScenario.ev[0].wlan[0].mac packetDropQueueOverflow:sum(packetBytes) 0
attr interpolationmode none
attr source packetDropReasonIsQueueOverflow(packetDropped)
attr title "packet drops: queue overflow, sum(packetBytes)"
scalar ToyEVDoSScenario.ev[0].wlan[0].mac packetDropRetryLimitReached:count 0
attr interpolationmode none
attr source packetDropReasonIsRetryLimitReached(packetDropped)
attr title "packet drops: retry limit reached, count"
scalar ToyEVDoSScenario.ev[0].wlan[0].mac packetDropRetryLimitReached:sum(packetBytes) 0
attr interpolationmode none
attr source packetDropReasonIsRetryLimitReached(packetDropped)
attr title "packet drops: retry limit reached, sum(packetBytes)"
scalar ToyEVDoSScenario.ev[0].wlan[0].mac packetDropDuplicateDetected:count 0
attr interpolationmode none
attr source packetDropReasonIsDuplicateDetected(packetDropped)
attr title "packet drops: duplicate detected, count"
scalar ToyEVDoSScenario.ev[0].wlan[0].mac packetDropDuplicateDetected:sum(packetBytes) 0
attr interpolationmode none
attr source packetDropReasonIsDuplicateDetected(packetDropped)
attr title "packet drops: duplicate detected, sum(packetBytes)"
scalar ToyEVDoSScenario.ev[0].wlan[0].mac packetDropOther:count 0
attr interpolationmode none
attr source packetDropReasonIsOther(packetDropped)
attr title "packet drops: other, count"
scalar ToyEVDoSScenario.ev[0].wlan[0].mac packetDropOther:sum(packetBytes) 0
attr interpolationmode none
attr source packetDropReasonIsOther(packetDropped)
attr title "packet drops: other, sum(packetBytes)"
scalar ToyEVDoSScenario.ev[0].wlan[0].mac linkBroken:count 0
attr interpolationmode none
attr title "link breaks, count"
statistic ToyEVDoSScenario.ev[0].wlan[0].radio minSnir:histogram
field count 347
field mean 27508.61376462
field stddev 238088.58069972
field min 279.57685653244
field max 3025855.0416339
field sum 9545488.976323
field sqrsum 19875998771268
attr source minimumSnir(packetSentToUpper)
attr title "Min SNIR, histogram"
bin	-inf	0
bin	0	337
bin	50000	4
bin	100000	0
bin	150000	1
bin	200000	0
bin	250000	1
bin	300000	0
bin	350000	1
bin	400000	0
bin	450000	0
bin	500000	0
bin	550000	0
bin	600000	0
bin	650000	0
bin	700000	0
bin	750000	0
bin	800000	0
bin	850000	0
bin	900000	0
bin	950000	0
bin	1000000	0
bin	1050000	0
bin	1100000	0
bin	1150000	0
bin	1200000	0
bin	1250000	0
bin	1300000	0
bin	1350000	0
bin	1400000	0
bin	1450000	0
bin	1500000	0
bin	1550000	0
bin	1600000	0
bin	1650000	0
bin	1700000	0
bin	1750000	0
bin	1800000	0
bin	1850000	0
bin	1900000	0
bin	1950000	0
bin	2000000	1
bin	2050000	0
bin	2100000	0
bin	2150000	0
bin	2200000	0
bin	2250000	0
bin	2300000	0
bin	2350000	0
bin	2400000	0
bin	2450000	0
bin	2500000	1
bin	2550000	0
bin	2600000	0
bin	2650000	0
bin	2700000	0
bin	2750000	0
bin	2800000	0
bin	2850000	0
bin	2900000	0
bin	2950000	0
bin	3000000	1
bin	3050000	0
bin	3100000	0
bin	3150000	0
bin	3200000	0
bin	3250000	0
bin	3300000	0
bin	3350000	0
bin	3400000	0
bin	3450000	0
bin	3500000	0
bin	3550000	0
bin	3600000	0
bin	3650000	0
bin	3700000	0
bin	3750000	0
bin	3800000	0
statistic ToyEVDoSScenario.ev[0].wlan[0].radio packetErrorRate:histogram
field count 347
field mean 0
field stddev 0
field min 0
field max 0
field sum 0
field sqrsum 0
attr source packetErrorRate(packetSentToUpper)
attr title "Packet error rate, histogram"
bin	-inf	0
bin	-0.5	0
bin	-0.48	0
bin	-0.46	0
bin	-0.44	0
bin	-0.42	0
bin	-0.4	0
bin	-0.38	0
bin	-0.36	0
bin	-0.34	0
bin	-0.32	0
bin	-0.3	0
bin	-0.28	0
bin	-0.26	0
bin	-0.24	0
bin	-0.22	0
bin	-0.2	0
bin	-0.18	0
bin	-0.16	0
bin	-0.14	0
bin	-0.12	0
bin	-0.1	0
bin	-0.08	0
bin	-0.06	0
bin	-0.04	0
bin	-0.02	0
bin	0	347
bin	0.02	0
bin	0.04	0
bin	0.06	0
bin	0.08	0
bin	0.1	0
bin	0.12	0
bin	0.14	0
bin	0.16	0
bin	0.18	0
bin	0.2	0
bin	0.22	0
bin	0.24	0
bin	0.26	0
bin	0.28	0
bin	0.3	0
bin	0.32	0
bin	0.34	0
bin	0.36	0
bin	0.38	0
bin	0.4	0
bin	0.42	0
bin	0.44	0
bin	0.46	0
bin	0.48	0
bin	0.5	0
statistic ToyEVDoSScenario.ev[0].wlan[0].radio bitErrorRate:histogram
field count 0
field mean nan
field stddev nan
field min nan
field max nan
field sum 0
field sqrsum 0
attr source bitErrorRate(packetSentToUpper)
attr title "Bit error rate, histogram"
bin	-inf	0
bin	0	0
bin	1	0
statistic ToyEVDoSScenario.ev[0].wlan[0].radio symbolErrorRate:histogram
field count 0
field mean nan
field stddev nan
field min nan
field max nan
field sum 0
field sqrsum 0
attr source symbolErrorRate(packetSentToUpper)
attr title "Symbol error rate, histogram"
bin	-inf	0
bin	0	0
bin	1	0
scalar ToyEVDoSScenario.ev[0].wlan[0].radio transmissionState:count 117888
attr interpolationmode sample-hold
attr source transmissionStateChanged
attr title "Radio transmission state, count"
scalar ToyEVDoSScenario.ev[0].wlan[0].radio receptionState:count 59639
attr interpolationmode sample-hold
attr source receptionStateChanged
attr title "Radio reception state, count"
scalar ToyEVDoSScenario.ev[0].wlan[0].radio radioMode:count 58947
attr interpolationmode sample-hold
attr source radioModeChanged
attr title "Radio mode, count"
statistic ToyEVDoSScenario.ev[0].wlan[0].radio radioChannel:histogram
field count 1
field mean 3
field stddev nan
field min 3
field max 3
field sum 3
field sqrsum 9
attr interpolationmode sample-hold
attr source radioChannelChanged
attr title "Radio channel, histogram"
bin	-inf	0
bin	2	0
bin	3	1
bin	4	0
scalar ToyEVDoSScenario.ev[0].ipv4.ip packetDropAddressResolutionFailed:count 0
attr interpolationmode none
attr source packetDropReasonIsAddressResolutionFailed(packetDropped)
attr title "packet drop: address resolution failed, count"
scalar ToyEVDoSScenario.ev[0].ipv4.ip packetDropAddressResolutionFailed:sum(packetBytes) 0
attr interpolationmode none
attr source packetDropReasonIsAddressResolutionFailed(packetDropped)
attr title "packet drop: address resolution failed, sum(packetBytes)"
scalar ToyEVDoSScenario.ev[0].ipv4.ip packetDropHopLimitReached:count 0
attr interpolationmode none
attr source packetDropReasonIsHopLimitReached(packetDropped)
attr title "packet drop: hop limit reached, count"
scalar ToyEVDoSScenario.ev[0].ipv4.ip packetDropHopLimitReached:sum(packetBytes) 0
attr interpolationmode none
attr source packetDropReasonIsHopLimitReached(packetDropped)
attr title "packet drop: hop limit reached, sum(packetBytes)"
scalar ToyEVDoSScenario.ev[0].ipv4.ip packetDropForwardingDisabled:count 0
attr interpolationmode none
attr source packetDropReasonIsForwardingDisabled(packetDropped)
attr title "packet drop: forwarding disabled, count"
scalar ToyEVDoSScenario.ev[0].ipv4.ip packetDropForwardingDisabled:sum(packetBytes) 0
attr interpolationmode none
attr source packetDropReasonIsForwardingDisabled(packetDropped)
attr title "packet drop: forwarding disabled, sum(packetBytes)"
scalar ToyEVDoSScenario.ev[0].ipv4.ip packetDropNoInterfaceFound:count 0
attr interpolationmode none
attr source packetDropReasonIsNoInterfaceFound(packetDropped)
attr title "packet drop: no interface found, count"
scalar ToyEVDoSScenario.ev[0].ipv4.ip packetDropNoInterfaceFound:sum(packetBytes) 0
attr interpolationmode none
attr source packetDropReasonIsNoInterfaceFound(packetDropped)
attr title "packet drop: no interface found, sum(packetBytes)"
scalar ToyEVDoSScenario.ev[0].ipv4.ip packetDropNoRouteFound:count 0
attr interpolationmode none
attr source packetDropReasonIsNoRouteFound(packetDropped)
attr title "packet drop: no route found, count"
scalar ToyEVDoSScenario.ev[0].ipv4.ip packetDropNoRouteFound:sum(packetBytes) 0
attr interpolationmode none
attr source packetDropReasonIsNoRouteFound(packetDropped)
attr title "packet drop: no route found, sum(packetBytes)"
scalar ToyEVDoSScenario.ev[0].ipv4.ip packetDropUndefined:count 0
attr interpolationmode none
attr source packetDropReasonIsUndefined(packetDropped)
attr title "packet drop: undefined, count"
scalar ToyEVDoSScenario.ev[0].ipv4.ip packetDropUndefined:sum(packetBytes) 0
attr interpolationmode none
attr source packetDropReasonIsUndefined(packetDropped)
attr title "packet drop: undefined, sum(packetBytes)"
scalar ToyEVDoSScenario.ev[0].ipv4.arp arpReplySent:count 0
attr source arpReplySent
attr title "ARP replies sent, count"
scalar ToyEVDoSScenario.ev[0].ipv4.arp arpReplySent:sum(packetBytes) 0
attr source arpReplySent
attr title "ARP replies sent, sum(packetBytes)"
scalar ToyEVDoSScenario.ev[0].ipv4.arp arpRequestSent:count 0
attr source arpRequestSent
attr title "ARP request sent, count"
scalar ToyEVDoSScenario.ev[0].ipv4.arp arpRequestSent:sum(packetBytes) 0
attr source arpRequestSent
attr title "ARP request sent, sum(packetBytes)"
scalar ToyEVDoSScenario.ev[0].ipv4.arp arpResolutionFailed:count 0
attr title "ARP failed resolutions, count"
scalar ToyEVDoSScenario.ev[0].ipv4.arp arpResolutionCompleted:count 0
attr title "ARP completed resolutions, count"
scalar ToyEVDoSScenario.ev[0].ipv4.arp arpResolutionInitiated:count 0
attr title "ARP initiated resolutions, count"
scalar ToyEVDoSScenario.ev[0].udp packetReceived:count 28268
attr interpolationmode none
attr source packetReceived
attr title "packets received, count"
scalar ToyEVDoSScenario.ev[0].udp packetReceived:sum(packetBytes) 24263383
attr interpolationmode none
attr source packetReceived
attr title "packets received, sum(packetBytes)"
scalar ToyEVDoSScenario.ev[0].udp packetSent:count 27921
attr interpolationmode none
attr source packetSent
attr title "packets sent, count"
scalar ToyEVDoSScenario.ev[0].udp packetSent:sum(packetBytes) 24157984
attr interpolationmode none
attr source packetSent
attr title "packets sent, sum(packetBytes)"
scalar ToyEVDoSScenario.ev[0].udp passedUpPk:count 28268
attr interpolationmode none
attr source packetSentToUpper
attr title "packets passed up, count"
scalar ToyEVDoSScenario.ev[0].udp droppedPkWrongPort:count 0
attr interpolationmode none
attr source packetDropReasonIsNoPortFound(packetDropped)
attr title "packets dropped (wrong port), count"
scalar ToyEVDoSScenario.ev[0].udp droppedPkBadChecksum:count 0
attr interpolationmode none
attr source packetDropReasonIsIncorrectlyReceived(packetDropped)
attr title "packets dropped (checksum error), count"
scalar ToyEVDoSScenario.ev[0].app[0] packetsSent 27921
scalar ToyEVDoSScenario.ev[0].app[0] packetsReceived 345
scalar ToyEVDoSScenario.ev[0].app[0] totalEnergyConsumed 244.93807052352
scalar ToyEVDoSScenario.ev[0].app[0] finalBatteryWh 153.18856471929
scalar ToyEVDoSScenario.ev[0].app[0] finalSoC 0.76594282359647
scalar ToyEVDoSScenario.ev[0].app[0] totalBytesSent 23934616
scalar ToyEVDoSScenario.ev[0].app[0] totalBytesReceived 102473
scalar ToyEVDoSScenario.ev[0].app[0] packetSendRate 93.07
scalar ToyEVDoSScenario.ev[0].app[0] packetRecvRate 1.15
scalar ToyEVDoSScenario.ev[0].app[0] attackDurationParam 60
scalar ToyEVDoSScenario.ev[0].app[0] isAttackerParam 1
statistic ToyEVDoSScenario.ev[0].app[0] senderSpeed:stats
field count 345
field mean 9.9890862838632
field stddev 6.1719737564632
field min 0
field max 15.503003006767
field sum 3446.2347679328
field sqrsum 47528.817908692
statistic ToyEVDoSScenario.ev[0].app[0] soc:stats
field count 28550
field mean 0.57044967716673
field stddev 0.11952870854998
field min 0
field max 1
field sum 16286.33828311
field sqrsum 9698.419181102
attr title "State of Charge, stats"
statistic ToyEVDoSScenario.ev[0].app[0] batteryLevel:stats
field count 28550
field mean 114.08993543335
field stddev 23.905741709986
field min 0
field max 200
field sum 3257267.6566221
field sqrsum 387936767.24407
statistic ToyEVDoSScenario.ev[0].app[0] txDuration:stats
field count 345
field mean 0.0003960309178744
field stddev 8.9035713140475e-005
field min 0.00013333333333333
field max 0.00053333333333333
field sum 0.13663066666667
field sqrsum 5.6836979555556e-005
statistic ToyEVDoSScenario.ev[0].app[0] energyConsumption:stats
field count 28256
field mean 3.1407138300246e-008
field stddev 1.5438093356178e-008
field min 2.9917480365408e-010
field max 6.6391795518153e-008
field sum 0.00088744009981174
field sqrsum 3.4606101644496e-011
statistic ToyEVDoSScenario.ev[0].app[0] interArrivalTime:stats
field count 28256
field mean 0.01807051235614
field stddev 0.20153153483197
field min 1.567256e-006
field max 26.579071392302
field sum 510.60039713509
field sqrsum 1156.8024923545
statistic ToyEVDoSScenario.ev[0].app[0] packetSize:stats
field count 28256
field mean 850.65610843715
field stddev 396.88254612729
field min 100
field max 1500
field sum 24036139
field sqrsum 24897096133
scalar ToyEVDoSScenario.ev[0].app[0] packetReceived:count 345
attr interpolationmode none
attr source packetReceived
attr title "packets received, count"
scalar ToyEVDoSScenario.ev[0].app[0] packetReceived:sum 345
attr interpolationmode none
attr source packetReceived
attr title "packets received, sum"
scalar ToyEVDoSScenario.ev[0].app[0] packetSent:count 27911
attr interpolationmode none
attr source packetSent
attr title "packets sent, count"
scalar ToyEVDoSScenario.ev[0].app[0] packetSent:sum 389528436
attr interpolationmode none
attr source packetSent
attr title "packets sent, sum"

