version 2
run Toy_Synchronized-0-20260220-12:18:10-23376
attr configname Toy_Synchronized
attr datetime 20260220-12:18:10
attr experiment Toy_Synchronized
attr inifile omnetpp.ini
attr iterationvars ""
attr iterationvarsf ""
attr measurement ""
attr network ToyEVDoSScenario
attr processid 23376
attr repetition 0
attr replication #0
attr resultdir results
attr runnumber 0
attr seedset 0
param *.cs[*].app[0].maxPktPerSecond 500
param *.rsu[*].app[0].maxPktPerSecond 500
param *.cs[*].wlan[0].mac.queue.packetCapacity 10
param *.cs[*].wlan[0].mac.queue.typename "\"DropTailQueue\""
param *.ev[*].app[0].energyPerMeter 0.1Wh
param *.ev[*].app[0].batteryCapacity 200Wh
param *.ev[0].app[0].isAttacker true
param *.ev[0].app[0].targetType "\"CS\""
param *.ev[0].app[0].targetAddress "\"cs[0]\""
param *.ev[0].app[0].attackStartTime 10s
param *.ev[0].app[0].attackDuration 60s
param *.ev[0].app[0].packetInterval 0.01s
param *.ev[0].app[0].packetSize 1024B
param *.ev[0].app[0].initialSoC 0.80
param *.ev[0].app[0].sumoColor "\"red\""
param *.ev[0].app[0].chargingRange 300m
param *.ev[0].app[0].physicalChargingRange 50m
param *.ev[0].app[0].csEdgeId "\"B1B2\""
param *.ev[1].app[0].isAttacker false
param *.ev[1].app[0].initialSoC 0.30
param *.ev[1].app[0].packetInterval 1s
param *.ev[1].app[0].chargingRange 300m
param *.ev[1].app[0].physicalChargingRange 50m
param *.ev[1].app[0].csEdgeId "\"B1B2\""
param *.ev[1].app[0].sumoColor "\"yellow\""
param *.radioMedium.neighborCache.typename "\"GridNeighborCache\""
param *.radioMedium.neighborCache.cellSizeX 300m
param *.radioMedium.neighborCache.cellSizeY 300m
param *.radioMedium.neighborCache.cellSizeZ 100m
param *.radioMedium.pathLoss.typename "\"FreeSpacePathLoss\""
param *.veinsManager.firstStepAt 0s
param *.veinsManager.roiRects "\"\""
param *.veinsManager.moduleType "\"evattack.veins_inet.VeinsInetEVChargingCar\""
param *.veinsManager.moduleName "\"ev\""
param *.ev[*].numApps 1
param *.ev[*].app[0].typename "\"VeinsInetEVChargingApp\""
param *.ev[*].app[0].interface "\"wlan0\""
param *.ev[*].app[0].interfaceTableModule "\"^.interfaceTable\""
param *.ev[*].mobility.typename "\"VeinsInetMobility\""
param *.ev[*].ipv4.configurator.typename "\"HostAutoConfigurator\""
param *.ev[*].ipv4.configurator.interfaces "\"wlan0\""
param *.ev[*].wlan[0].typename "\"Ieee80211Interface\""
param *.ev[*].wlan[0].radio.typename "\"Ieee80211ScalarRadio\""
param *.ev[*].wlan[0].radio.bandName "\"5.9 GHz\""
param *.ev[*].wlan[0].radio.channelNumber 3
param *.ev[*].wlan[0].radio.transmitter.power 20mW
param *.ev[*].wlan[0].radio.receiver.sensitivity -89dBm
param *.ev[*].wlan[0].radio.receiver.snirThreshold 4dB
param *.ev[*].wlan[0].mgmt.typename "\"Ieee80211MgmtAdhoc\""
param *.ev[*].wlan[0].mac.dcf.channelAccess.cwMin 15
param *.ev[*].wlan[0].mac.dcf.channelAccess.cwMax 1023
param *.ev[*].wlan[0].radio.displayCommunicationRange true
param *.ev[*].app[0].batteryCapacity 200Wh
param *.ev[*].app[0].initialSoC 0.8
param *.ev[*].app[0].energyPerMeter 0.05Wh
param *.ev[*].app[0].chargingPowerW 7200W
param *.ev[*].app[0].socThreshold 0.2
param *.ev[*].app[0].chargingRange 300m
param *.ev[*].app[0].physicalChargingRange 15m
param *.ev[*].app[0].csEdgeId "\"B1B2\""
param *.ev[*].app[0].destinations "\"\""
param *.ev[*].app[0].isAttacker false
param *.ev[*].app[0].maxPktPerSecond 0
param *.cs[*].app[0].maxPktPerSecond 0
param *.rsu[*].app[0].maxPktPerSecond 0
param *.ev[*].app[0].sumoColor "\"yellow\""
param *.cs[*].numApps 1
param *.cs[*].app[0].typename "\"VeinsInetCSChargingApp\""
param *.cs[*].app[0].interfaceTableModule "\"^.interfaceTable\""
param *.cs[*].app[0].maxSlots 1
param *.cs[*].app[0].csBatteryCapacity 50000Wh
param *.cs[*].app[0].initialCSSoC 1.0
param *.cs[*].app[0].chargingPowerW 7200W
param *.cs[*].app[0].gridRechargePowerW 10000W
param *.cs[*].ipv4.configurator.typename "\"HostAutoConfigurator\""
param *.cs[*].ipv4.configurator.interfaces "\"wlan0\""
param *.cs[*].mobility.initFromDisplayString false
param *.cs[*].numWlanInterfaces 1
param *.cs[*].wlan[0].typename "\"Ieee80211Interface\""
param *.cs[*].wlan[0].radio.typename "\"Ieee80211ScalarRadio\""
param *.cs[*].wlan[0].radio.bandName "\"5.9 GHz\""
param *.cs[*].wlan[0].radio.channelNumber 3
param *.cs[*].wlan[0].radio.transmitter.power 20mW
param *.cs[*].wlan[0].radio.receiver.sensitivity -89dBm
param *.cs[*].wlan[0].mgmt.typename "\"Ieee80211MgmtAdhoc\""
param *.cs[*].wlan[0].mac.dcf.channelAccess.cwMin 15
param *.cs[*].wlan[0].mac.dcf.channelAccess.cwMax 1023
param *.cs[*].wlan[0].radio.displayCommunicationRange true
param *.rsu[*].numApps 1
param *.rsu[*].app[0].typename "\"VeinsInetReceiverApp\""
param *.rsu[*].ipv4.configurator.typename "\"HostAutoConfigurator\""
param *.rsu[*].ipv4.configurator.interfaces "\"wlan0\""
param *.rsu[*].mobility.initFromDisplayString false
param *.rsu[*].numWlanInterfaces 1
param *.rsu[*].wlan[0].typename "\"Ieee80211Interface\""
param *.rsu[*].wlan[0].radio.typename "\"Ieee80211ScalarRadio\""
param *.rsu[*].wlan[0].radio.bandName "\"5.9 GHz\""
param *.rsu[*].wlan[0].radio.channelNumber 3
param *.rsu[*].wlan[0].radio.transmitter.power 200mW
param *.rsu[*].wlan[0].radio.receiver.sensitivity -89dBm
param *.rsu[*].wlan[0].mgmt.typename "\"Ieee80211MgmtAdhoc\""
param *.rsu[*].wlan[0].mac.dcf.channelAccess.cwMin 15
param *.rsu[*].wlan[0].mac.dcf.channelAccess.cwMax 1023
param *.rsu[*].wlan[0].radio.displayCommunicationRange true
param **.constraintAreaMinX -10m
param **.constraintAreaMinY -10m
param **.constraintAreaMinZ 0m
param **.constraintAreaMaxX 500m
param **.constraintAreaMaxY 500m
param **.constraintAreaMaxZ 100m
param *.veinsManager.launchConfig "xmldoc(\"toy.launchd.xml\")"
param *.ev[*].app[0].destinations "\"C2C1 A2B2 C0B0 A0B0\""
param *.cs[0].mobility.typename "\"StationaryMobility\""
param *.cs[0].mobility.initialX 200m
param *.cs[0].mobility.initialY 200m
param *.cs[0].mobility.initialZ 0m
param *.rsu[0].mobility.typename "\"StationaryMobility\""
param *.rsu[0].mobility.initialX 200m
param *.rsu[0].mobility.initialY 300m
param *.rsu[0].mobility.initialZ 10m
param *.visualizer.typename "\"IntegratedCanvasVisualizer\""
param *.visualizer.*.displayDefaults false
param *.veinsManager.seed 0
param **.constraintAreaMinX 0m
param **.constraintAreaMinY 0m
param **.constraintAreaMinZ 0m
param **.constraintAreaMaxX 13640m
param **.constraintAreaMaxY 11500m
param **.constraintAreaMaxZ 50m
param *.visualizer.*.mobilityVisualizer.displayMobility false
param *.visualizer.*.mobilityVisualizer.displayPositions false
param *.visualizer.*.mediumVisualizer.displaySignals false
param *.visualizer.*.mediumVisualizer.displayTransmissions false
param *.visualizer.*.mediumVisualizer.displayReceptions false
param *.visualizer.*.dataLinkVisualizer.displayLinks false
param *.visualizer.*.networkRouteVisualizer.displayRoutes false
param *.visualizer.*.interfaceTableVisualizer.displayInterfaceTables false
param *.visualizer.*.packetDropVisualizer.displayPacketDrops false
param *.veinsManager.updateInterval 0.1s
param *.veinsManager.host "\"localhost\""
param *.veinsManager.port 9999
param *.veinsManager.autoShutdown true
param *.veinsManager.launchConfig "xmldoc(\"luxembourg.launchd.xml\")"
param *.veinsManager.moduleType "\"evattack.veins_inet.VeinsInetEVCar\""
param *.veinsManager.moduleName "\"ev\""
param *.veinsManager.roiRects "\"2300,5400-6300,6300\""
param *.veinsManager.firstStepAt 7h
param *.configurator.config "xmldoc(\"config.xml\")"
param *.configurator.addStaticRoutes false
param *.configurator.addDefaultRoutes false
param *.configurator.addSubnetRoutes false
param *.configurator.addDirectRoutes false
param *.configurator.optimizeRoutes false
param *.radioMedium.mediumLimitCache.carrierFrequency 5.9GHz
param *.radioMedium.pathLoss.typename "\"TwoRayInterference\""
param *.radioMedium.mediumLimitCache.maxCommunicationRange 500m
param *.radioMedium.mediumLimitCache.maxInterferenceRange 750m
param *.ev[*].numApps 1
param *.ev[*].app[0].typename "\"VeinsInetEVDoSApplication\""
param *.ev[*].app[0].interfaceTableModule "\"^.interfaceTable\""
param *.ev[*].app[0].interface "\"wlan0\""
param *.ev[*].mobility.typename "\"VeinsInetMobility\""
param *.ev[*].ipv4.configurator.typename "\"HostAutoConfigurator\""
param *.ev[*].ipv4.configurator.interfaces "\"wlan0\""
param *.ev[*].wlan[0].typename "\"Ieee80211Interface\""
param *.ev[*].wlan[0].radio.typename "\"Ieee80211ScalarRadio\""
param *.ev[*].wlan[0].radio.bandName "\"5.9 GHz\""
param *.ev[*].wlan[0].radio.channelNumber 3
param *.ev[*].wlan[0].radio.transmitter.power 20mW
param *.ev[*].wlan[0].radio.receiver.sensitivity -89dBm
param *.ev[*].wlan[0].radio.receiver.snirThreshold 4dB
param *.ev[*].wlan[0].mgmt.typename "\"Ieee80211MgmtAdhoc\""
param *.ev[*].wlan[0].mac.dcf.channelAccess.cwMin 15
param *.ev[*].wlan[0].mac.dcf.channelAccess.cwMax 1023
param *.ev[*].wlan[0].radio.displayCommunicationRange false
param *.ev[*].app[0].isAttacker false
param *.cs[*].numApps 1
param *.cs[*].app[0].typename "\"VeinsInetReceiverApp\""
param *.cs[*].ipv4.configurator.typename "\"HostAutoConfigurator\""
param *.cs[*].ipv4.configurator.interfaces "\"wlan0\""
param *.cs[*].mobility.initFromDisplayString false
param *.cs[0].mobility.typename "\"StationaryMobility\""
param *.cs[0].mobility.initialX 3200m
param *.cs[0].mobility.initialY 5700m
param *.cs[0].mobility.initialZ 0m
param *.cs[1].mobility.typename "\"StationaryMobility\""
param *.cs[1].mobility.initialX 4500m
param *.cs[1].mobility.initialY 5900m
param *.cs[1].mobility.initialZ 0m
param *.cs[2].mobility.typename "\"StationaryMobility\""
param *.cs[2].mobility.initialX 5800m
param *.cs[2].mobility.initialY 5600m
param *.cs[2].mobility.initialZ 0m
param *.cs[*].numWlanInterfaces 1
param *.cs[*].wlan[0].typename "\"Ieee80211Interface\""
param *.cs[*].wlan[0].radio.typename "\"Ieee80211ScalarRadio\""
param *.cs[*].wlan[0].radio.bandName "\"5.9 GHz\""
param *.cs[*].wlan[0].radio.channelNumber 3
param *.cs[*].wlan[0].radio.transmitter.power 20mW
param *.cs[*].wlan[0].radio.receiver.sensitivity -89dBm
param *.cs[*].wlan[0].mgmt.typename "\"Ieee80211MgmtAdhoc\""
param *.cs[*].wlan[0].mac.dcf.channelAccess.cwMin 15
param *.cs[*].wlan[0].mac.dcf.channelAccess.cwMax 1023
param *.cs[*].wlan[0].radio.displayCommunicationRange false
param *.rsu[*].numApps 1
param *.rsu[*].app[0].typename "\"VeinsInetReceiverApp\""
param *.rsu[*].ipv4.configurator.typename "\"HostAutoConfigurator\""
param *.rsu[*].ipv4.configurator.interfaces "\"wlan0\""
param *.rsu[*].mobility.initFromDisplayString false
param *.rsu[0].mobility.typename "\"StationaryMobility\""
param *.rsu[0].mobility.initialX 2800m
param *.rsu[0].mobility.initialY 5500m
param *.rsu[0].mobility.initialZ 10m
param *.rsu[1].mobility.typename "\"StationaryMobility\""
param *.rsu[1].mobility.initialX 3800m
param *.rsu[1].mobility.initialY 5800m
param *.rsu[1].mobility.initialZ 10m
param *.rsu[2].mobility.typename "\"StationaryMobility\""
param *.rsu[2].mobility.initialX 4800m
param *.rsu[2].mobility.initialY 6000m
param *.rsu[2].mobility.initialZ 10m
param *.rsu[3].mobility.typename "\"StationaryMobility\""
param *.rsu[3].mobility.initialX 5500m
param *.rsu[3].mobility.initialY 5800m
param *.rsu[3].mobility.initialZ 10m
param *.rsu[4].mobility.typename "\"StationaryMobility\""
param *.rsu[4].mobility.initialX 6000m
param *.rsu[4].mobility.initialY 6100m
param *.rsu[4].mobility.initialZ 10m
param *.rsu[*].numWlanInterfaces 1
param *.rsu[*].wlan[0].typename "\"Ieee80211Interface\""
param *.rsu[*].wlan[0].radio.typename "\"Ieee80211ScalarRadio\""
param *.rsu[*].wlan[0].radio.bandName "\"5.9 GHz\""
param *.rsu[*].wlan[0].radio.channelNumber 3
param *.rsu[*].wlan[0].radio.transmitter.power 200mW
param *.rsu[*].wlan[0].radio.receiver.sensitivity -89dBm
param *.rsu[*].wlan[0].mgmt.typename "\"Ieee80211MgmtAdhoc\""
param *.rsu[*].wlan[0].mac.dcf.channelAccess.cwMin 15
param *.rsu[*].wlan[0].mac.dcf.channelAccess.cwMax 1023
param *.rsu[*].wlan[0].radio.displayCommunicationRange false

scalar ToyEVDoSScenario.radioMedium.propagation "Arrival computation count" 13989
scalar ToyEVDoSScenario.radioMedium "transmission count" 4665
scalar ToyEVDoSScenario.radioMedium "signal send count" 13989
scalar ToyEVDoSScenario.radioMedium "reception computation count" 13989
scalar ToyEVDoSScenario.radioMedium "interference computation count" 46636
scalar ToyEVDoSScenario.radioMedium "reception decision computation count" 13989
scalar ToyEVDoSScenario.radioMedium "listening decision computation count" 18658
scalar ToyEVDoSScenario.radioMedium "reception cache hit" 85.714285714286
attr unit %
scalar ToyEVDoSScenario.radioMedium "interference cache hit" 66.666666666667
attr unit %
scalar ToyEVDoSScenario.radioMedium "noise cache hit" 0
attr unit %
scalar ToyEVDoSScenario.radioMedium "snir cache hit" 50
attr unit %
scalar ToyEVDoSScenario.radioMedium "reception decision cache hit" 50
attr unit %
scalar ToyEVDoSScenario.radioMedium "reception result cache hit" 0
attr unit %
scalar ToyEVDoSScenario.veinsManager roiArea 0
scalar ToyEVDoSScenario.cs[0].lo[0].lo rcvdPkFromHl:count 1
attr interpolationmode none
attr source packetReceivedFromUpper
attr title "packets received from higher layer, count"
scalar ToyEVDoSScenario.cs[0].lo[0].lo rcvdPkFromHl:sum(packetBytes) 128
attr interpolationmode none
attr source packetReceivedFromUpper
attr title "packets received from higher layer, sum(packetBytes)"
scalar ToyEVDoSScenario.cs[0].lo[0].lo passedUpPk:count 1
attr interpolationmode none
attr source packetSentToUpper
attr title "packets passed to higher layer, count"
scalar ToyEVDoSScenario.cs[0].lo[0].lo passedUpPk:sum(packetBytes) 128
attr interpolationmode none
attr source packetSentToUpper
attr title "packets passed to higher layer, sum(packetBytes)"
scalar ToyEVDoSScenario.cs[0].wlan[0].mac.dcf.channelAccess.pendingQueue packetPopped:count 1
attr interpolationmode none
attr title "packet popped, count"
scalar ToyEVDoSScenario.cs[0].wlan[0].mac.dcf.channelAccess.pendingQueue packetPopped:sum(packetBytes) 164
attr interpolationmode none
attr title "packet popped, sum(packetBytes)"
statistic ToyEVDoSScenario.cs[0].wlan[0].mac.dcf.channelAccess.pendingQueue queueingTime:histogram
field count 1
field mean 5e-005
field stddev nan
field min 5e-005
field max 5e-005
field sum 5e-005
field sqrsum 2.5e-009
attr interpolationmode none
attr source queueingTime(packetPopped)
attr title "queueing times, histogram"
attr unit s
bin	-inf	0
bin	0	1
bin	0.01	0
bin	0.02	0
bin	0.03	0
bin	0.04	0
bin	0.05	0
bin	0.06	0
bin	0.07	0
bin	0.08	0
bin	0.09	0
bin	0.1	0
bin	0.11	0
bin	0.12	0
bin	0.13	0
bin	0.14	0
bin	0.15	0
bin	0.16	0
bin	0.17	0
bin	0.18	0
bin	0.19	0
bin	0.2	0
bin	0.21	0
bin	0.22	0
bin	0.23	0
bin	0.24	0
bin	0.25	0
bin	0.26	0
bin	0.27	0
bin	0.28	0
bin	0.29	0
bin	0.3	0
bin	0.31	0
bin	0.32	0
bin	0.33	0
bin	0.34	0
bin	0.35	0
bin	0.36	0
bin	0.37	0
bin	0.38	0
bin	0.39	0
bin	0.4	0
bin	0.41	0
bin	0.42	0
bin	0.43	0
bin	0.44	0
bin	0.45	0
bin	0.46	0
bin	0.47	0
bin	0.48	0
bin	0.49	0
bin	0.5	0
bin	0.51	0
scalar ToyEVDoSScenario.cs[0].wlan[0].mac.dcf.channelAccess.pendingQueue queueLength:max 1
attr interpolationmode sample-hold
attr source "count(packetPushed) - count(packetPopped) - count(packetRemoved) - count(packetDropped)"
attr title "queue length, max"
scalar ToyEVDoSScenario.cs[0].wlan[0].mac.dcf.channelAccess.pendingQueue queueLength:timeavg 1.8268071073407e-006
attr interpolationmode sample-hold
attr source "count(packetPushed) - count(packetPopped) - count(packetRemoved) - count(packetDropped)"
attr title "queue length, timeavg"
scalar ToyEVDoSScenario.cs[0].wlan[0].mac.dcf.channelAccess.pendingQueue packetPushed:count 1
attr interpolationmode none
attr title "packet pushed, count"
scalar ToyEVDoSScenario.cs[0].wlan[0].mac.dcf.channelAccess.pendingQueue packetPushed:sum(packetBytes) 164
attr interpolationmode none
attr title "packet pushed, sum(packetBytes)"
scalar ToyEVDoSScenario.cs[0].wlan[0].mac.dcf.channelAccess.pendingQueue packetDropQueueOverflow:count 0
attr interpolationmode none
attr source packetDropReasonIsQueueOverflow(packetDropped)
attr title "packet drops: queue overflow, count"
scalar ToyEVDoSScenario.cs[0].wlan[0].mac.dcf.channelAccess.pendingQueue packetDropQueueOverflow:sum(packetBytes) 0
attr interpolationmode none
attr source packetDropReasonIsQueueOverflow(packetDropped)
attr title "packet drops: queue overflow, sum(packetBytes)"
scalar ToyEVDoSScenario.cs[0].wlan[0].mac.dcf.channelAccess.pendingQueue packetRemoved:count 0
attr interpolationmode none
attr title "packets removed, count"
scalar ToyEVDoSScenario.cs[0].wlan[0].mac.dcf.channelAccess.pendingQueue packetRemoved:sum(packetBytes) 0
attr interpolationmode none
attr title "packets removed, sum(packetBytes)"
statistic ToyEVDoSScenario.cs[0].wlan[0].mac.dcf.channelAccess.inProgressFrames queueingTime:histogram
field count 1
field mean 8.2e-005
field stddev nan
field min 8.2e-005
field max 8.2e-005
field sum 8.2e-005
field sqrsum 6.724e-009
attr interpolationmode none
attr source queueingTime(packetDequeued)
attr title "queueing times, histogram"
bin	-inf	0
bin	0	1
bin	0.01	0
bin	0.02	0
bin	0.03	0
bin	0.04	0
bin	0.05	0
bin	0.06	0
bin	0.07	0
bin	0.08	0
bin	0.09	0
bin	0.1	0
bin	0.11	0
bin	0.12	0
bin	0.13	0
bin	0.14	0
bin	0.15	0
bin	0.16	0
bin	0.17	0
bin	0.18	0
bin	0.19	0
bin	0.2	0
bin	0.21	0
bin	0.22	0
bin	0.23	0
bin	0.24	0
bin	0.25	0
bin	0.26	0
bin	0.27	0
bin	0.28	0
bin	0.29	0
bin	0.3	0
bin	0.31	0
bin	0.32	0
bin	0.33	0
bin	0.34	0
bin	0.35	0
bin	0.36	0
bin	0.37	0
bin	0.38	0
bin	0.39	0
bin	0.4	0
bin	0.41	0
bin	0.42	0
bin	0.43	0
bin	0.44	0
bin	0.45	0
bin	0.46	0
bin	0.47	0
bin	0.48	0
bin	0.49	0
bin	0.5	0
bin	0.51	0
scalar ToyEVDoSScenario.cs[0].wlan[0].mac.dcf.channelAccess.inProgressFrames queueLength:max 1
attr interpolationmode sample-hold
attr source "count(packetEnqueued) - count(packetDequeued)"
attr title "queue length, max"
scalar ToyEVDoSScenario.cs[0].wlan[0].mac.dcf.channelAccess.inProgressFrames queueLength:timeavg 2.9959691290965e-006
attr interpolationmode sample-hold
attr source "count(packetEnqueued) - count(packetDequeued)"
attr title "queue length, timeavg"
scalar ToyEVDoSScenario.cs[0].wlan[0].mac.dcf.channelAccess.contention stateChanged:count 18666
attr interpolationmode none
attr title "contention state changed, count"
scalar ToyEVDoSScenario.cs[0].wlan[0].mac.dcf.channelAccess.contention channelAccessGranted:count 1
attr title "channel access granted, count"
scalar ToyEVDoSScenario.cs[0].wlan[0].mac.dcf.channelAccess channelOwnershipChanged:count 2
attr interpolationmode sample-hold
attr title "channel ownership, count"
scalar ToyEVDoSScenario.cs[0].wlan[0].mac.dcf.originatorMacDataService packetAggregated:count 0
attr title "packets aggregated, count"
scalar ToyEVDoSScenario.cs[0].wlan[0].mac.dcf.originatorMacDataService packetFragmented:count 0
attr title "packets fragmented, count"
scalar ToyEVDoSScenario.cs[0].wlan[0].mac.dcf.recipientMacDataService packetDropDuplicateDetected:count 0
attr interpolationmode none
attr source packetDropReasonIsDuplicateDetected(packetDropped)
attr title "packet drops: duplicate detected, count"
scalar ToyEVDoSScenario.cs[0].wlan[0].mac.dcf.recipientMacDataService packetDropDuplicateDetected:sum(packetBytes) 0
attr interpolationmode none
attr source packetDropReasonIsDuplicateDetected(packetDropped)
attr title "packet drops: duplicate detected, sum(packetBytes)"
scalar ToyEVDoSScenario.cs[0].wlan[0].mac.dcf.recipientMacDataService packetDeaggregated:count 0
attr title "packets deaggregated, count"
scalar ToyEVDoSScenario.cs[0].wlan[0].mac.dcf.recipientMacDataService packetDefragmented:count 4422
attr title "packets defragmented, count"
scalar ToyEVDoSScenario.cs[0].wlan[0].mac.dcf.recoveryProcedure retryLimitReached:count 0
attr title "retry limit reached, count"
scalar ToyEVDoSScenario.cs[0].wlan[0].mac.dcf packetReceivedFromPeer:count 4664
attr interpolationmode none
attr title "packets received, count"
scalar ToyEVDoSScenario.cs[0].wlan[0].mac.dcf packetReceivedFromPeer:sum(packetBytes) 4063653
attr interpolationmode none
attr title "packets received, sum(packetBytes)"
scalar ToyEVDoSScenario.cs[0].wlan[0].mac.dcf packetReceivedFromPeerUnicast:count 0
attr interpolationmode none
attr source ieee80211Unicast(packetReceivedFromPeer)
attr title "packets received: unicast, count"
scalar ToyEVDoSScenario.cs[0].wlan[0].mac.dcf packetReceivedFromPeerUnicast:sum(packetBytes) 0
attr interpolationmode none
attr source ieee80211Unicast(packetReceivedFromPeer)
attr title "packets received: unicast, sum(packetBytes)"
scalar ToyEVDoSScenario.cs[0].wlan[0].mac.dcf packetReceivedFromPeerMulticast:count 4664
attr interpolationmode none
attr source ieee80211Multicast(packetReceivedFromPeer)
attr title "packets received: multicast, count"
scalar ToyEVDoSScenario.cs[0].wlan[0].mac.dcf packetReceivedFromPeerMulticast:sum(packetBytes) 4063653
attr interpolationmode none
attr source ieee80211Multicast(packetReceivedFromPeer)
attr title "packets received: multicast, sum(packetBytes)"
scalar ToyEVDoSScenario.cs[0].wlan[0].mac.dcf packetReceivedFromPeerBroadcast:count 0
attr interpolationmode none
attr source ieee80211Broadcast(packetReceivedFromPeer)
attr title "packets received: broadcast, count"
scalar ToyEVDoSScenario.cs[0].wlan[0].mac.dcf packetReceivedFromPeerBroadcast:sum(packetBytes) 0
attr interpolationmode none
attr source ieee80211Broadcast(packetReceivedFromPeer)
attr title "packets received: broadcast, sum(packetBytes)"
scalar ToyEVDoSScenario.cs[0].wlan[0].mac.dcf packetReceivedFromPeerWithRetry:count 0
attr interpolationmode none
attr source ieee80211Retry(packetReceivedFromPeer)
attr title "packets received: with retry, count"
scalar ToyEVDoSScenario.cs[0].wlan[0].mac.dcf packetReceivedFromPeerWithRetry:sum(packetBytes) 0
attr interpolationmode none
attr source ieee80211Retry(packetReceivedFromPeer)
attr title "packets received: with retry, sum(packetBytes)"
scalar ToyEVDoSScenario.cs[0].wlan[0].mac.dcf packetReceivedFromPeerWithoutRetry:count 4664
attr interpolationmode none
attr source ieee80211NotRetry(packetReceivedFromPeer)
attr title "packets received: without retry, count"
scalar ToyEVDoSScenario.cs[0].wlan[0].mac.dcf packetReceivedFromPeerWithoutRetry:sum(packetBytes) 4063653
attr interpolationmode none
attr source ieee80211NotRetry(packetReceivedFromPeer)
attr title "packets received: without retry, sum(packetBytes)"
scalar ToyEVDoSScenario.cs[0].wlan[0].mac.dcf packetSentToPeer:count 1
attr interpolationmode none
attr title "packets sent, count"
scalar ToyEVDoSScenario.cs[0].wlan[0].mac.dcf packetSentToPeer:sum(packetBytes) 164
attr interpolationmode none
attr title "packets sent, sum(packetBytes)"
scalar ToyEVDoSScenario.cs[0].wlan[0].mac.dcf packetSentToPeerUnicast:count 0
attr interpolationmode none
attr source ieee80211Unicast(packetSentToPeer)
attr title "packets sent: unicast, count"
scalar ToyEVDoSScenario.cs[0].wlan[0].mac.dcf packetSentToPeerUnicast:sum(packetBytes) 0
attr interpolationmode none
attr source ieee80211Unicast(packetSentToPeer)
attr title "packets sent: unicast, sum(packetBytes)"
scalar ToyEVDoSScenario.cs[0].wlan[0].mac.dcf packetSentToPeerMulticast:count 1
attr interpolationmode none
attr source ieee80211Multicast(packetSentToPeer)
attr title "packets sent: multicast, count"
scalar ToyEVDoSScenario.cs[0].wlan[0].mac.dcf packetSentToPeerMulticast:sum(packetBytes) 164
attr interpolationmode none
attr source ieee80211Multicast(packetSentToPeer)
attr title "packets sent: multicast, sum(packetBytes)"
scalar ToyEVDoSScenario.cs[0].wlan[0].mac.dcf packetSentToPeerBroadcast:count 0
attr interpolationmode none
attr source ieee80211Broadcast(packetSentToPeer)
attr title "packets sent: broadcast , count"
scalar ToyEVDoSScenario.cs[0].wlan[0].mac.dcf packetSentToPeerBroadcast:sum(packetBytes) 0
attr interpolationmode none
attr source ieee80211Broadcast(packetSentToPeer)
attr title "packets sent: broadcast , sum(packetBytes)"
scalar ToyEVDoSScenario.cs[0].wlan[0].mac.dcf packetSentToPeerWithRetry:count 0
attr interpolationmode none
attr source ieee80211Retry(packetSentToPeer)
attr title "packets sent: with retry, count"
scalar ToyEVDoSScenario.cs[0].wlan[0].mac.dcf packetSentToPeerWithRetry:sum(packetBytes) 0
attr interpolationmode none
attr source ieee80211Retry(packetSentToPeer)
attr title "packets sent: with retry, sum(packetBytes)"
scalar ToyEVDoSScenario.cs[0].wlan[0].mac.dcf packetSentToPeerWithoutRetry:count 1
attr interpolationmode none
attr source ieee80211NotRetry(packetSentToPeer)
attr title "packets sent: without retry, count"
scalar ToyEVDoSScenario.cs[0].wlan[0].mac.dcf packetSentToPeerWithoutRetry:sum(packetBytes) 164
attr interpolationmode none
attr source ieee80211NotRetry(packetSentToPeer)
attr title "packets sent: without retry, sum(packetBytes)"
scalar ToyEVDoSScenario.cs[0].wlan[0].mac.dcf packetDrop:count 0
attr interpolationmode none
attr source packetDropped
attr title "packet drops, count"
scalar ToyEVDoSScenario.cs[0].wlan[0].mac.dcf packetDrop:sum(packetBytes) 0
attr interpolationmode none
attr source packetDropped
attr title "packet drops, sum(packetBytes)"
scalar ToyEVDoSScenario.cs[0].wlan[0].mac.dcf packetDropNotAddressedToUs:count 0
attr interpolationmode none
attr source packetDropReasonIsNotAddressedToUs(packetDropped)
attr title "packet drops: not addressed to us, count"
scalar ToyEVDoSScenario.cs[0].wlan[0].mac.dcf packetDropNotAddressedToUs:sum(packetBytes) 0
attr interpolationmode none
attr source packetDropReasonIsNotAddressedToUs(packetDropped)
attr title "packet drops: not addressed to us, sum(packetBytes)"
scalar ToyEVDoSScenario.cs[0].wlan[0].mac.dcf packetDropQueueOverflow:count 0
attr interpolationmode none
attr source packetDropReasonIsQueueOverflow(packetDropped)
attr title "packet drops: queue overflow, count"
scalar ToyEVDoSScenario.cs[0].wlan[0].mac.dcf packetDropQueueOverflow:sum(packetBytes) 0
attr interpolationmode none
attr source packetDropReasonIsQueueOverflow(packetDropped)
attr title "packet drops: queue overflow, sum(packetBytes)"
scalar ToyEVDoSScenario.cs[0].wlan[0].mac.dcf packetDropRetryLimitReached:count 0
attr interpolationmode none
attr source packetDropReasonIsRetryLimitReached(packetDropped)
attr title "packet drops: retry limit reached, count"
scalar ToyEVDoSScenario.cs[0].wlan[0].mac.dcf packetDropRetryLimitReached:sum(packetBytes) 0
attr interpolationmode none
attr source packetDropReasonIsRetryLimitReached(packetDropped)
attr title "packet drops: retry limit reached, sum(packetBytes)"
scalar ToyEVDoSScenario.cs[0].wlan[0].mac.dcf linkBroken:count 0
attr interpolationmode none
attr title "link breaks, count"
scalar ToyEVDoSScenario.cs[0].wlan[0].mac.dcf frameSequenceFinished:count 1
attr title "finished frame sequences, count"
statistic ToyEVDoSScenario.cs[0].wlan[0].mac.dcf frameSequenceDuration:histogram
field count 1
field mean 8.2e-005
field stddev nan
field min 8.2e-005
field max 8.2e-005
field sum 8.2e-005
field sqrsum 6.724e-009
attr source frameSequenceDuration(frameSequenceFinished)
attr title "frame sequence durations, histogram"
bin	-inf	0
bin	0	1
bin	0.01	0
bin	0.02	0
bin	0.03	0
bin	0.04	0
bin	0.05	0
bin	0.06	0
bin	0.07	0
bin	0.08	0
bin	0.09	0
bin	0.1	0
bin	0.11	0
bin	0.12	0
bin	0.13	0
bin	0.14	0
bin	0.15	0
bin	0.16	0
bin	0.17	0
bin	0.18	0
bin	0.19	0
bin	0.2	0
bin	0.21	0
bin	0.22	0
bin	0.23	0
bin	0.24	0
bin	0.25	0
bin	0.26	0
bin	0.27	0
bin	0.28	0
bin	0.29	0
bin	0.3	0
bin	0.31	0
bin	0.32	0
bin	0.33	0
bin	0.34	0
bin	0.35	0
bin	0.36	0
bin	0.37	0
bin	0.38	0
bin	0.39	0
bin	0.4	0
bin	0.41	0
bin	0.42	0
bin	0.43	0
bin	0.44	0
bin	0.45	0
bin	0.46	0
bin	0.47	0
bin	0.48	0
bin	0.49	0
bin	0.5	0
bin	0.51	0
statistic ToyEVDoSScenario.cs[0].wlan[0].mac.dcf frameSequenceNumPackets:histogram
field count 1
field mean 1
field stddev nan
field min 1
field max 1
field sum 1
field sqrsum 1
attr source frameSequenceNumPackets(frameSequenceFinished)
attr title "frame sequences: number of packets, histogram"
bin	-inf	0
bin	0	0
bin	1	1
bin	2	0
scalar ToyEVDoSScenario.cs[0].wlan[0].mac packetReceivedFromLower:count 4664
attr interpolationmode none
attr title "packets received from lower layer, count"
scalar ToyEVDoSScenario.cs[0].wlan[0].mac packetReceivedFromLower:sum(packetBytes) 4063653
attr interpolationmode none
attr title "packets received from lower layer, sum(packetBytes)"
scalar ToyEVDoSScenario.cs[0].wlan[0].mac packetSentToLower:count 1
attr interpolationmode none
attr title "packets sent to lower layer, count"
scalar ToyEVDoSScenario.cs[0].wlan[0].mac packetSentToLower:sum(packetBytes) 164
attr interpolationmode none
attr title "packets sent to lower layer, sum(packetBytes)"
scalar ToyEVDoSScenario.cs[0].wlan[0].mac packetReceivedFromUpper:count 1
attr interpolationmode none
attr title "packets received from upper layer, count"
scalar ToyEVDoSScenario.cs[0].wlan[0].mac packetReceivedFromUpper:sum(packetBytes) 136
attr interpolationmode none
attr title "packets received from upper layer, sum(packetBytes)"
scalar ToyEVDoSScenario.cs[0].wlan[0].mac packetSentToUpper:count 4422
attr interpolationmode none
attr title "packets sent to upper layer, count"
scalar ToyEVDoSScenario.cs[0].wlan[0].mac packetSentToUpper:sum(packetBytes) 3933061
attr interpolationmode none
attr title "packets sent to upper layer, sum(packetBytes)"
scalar ToyEVDoSScenario.cs[0].wlan[0].mac packetDrop:count 0
attr interpolationmode none
attr source packetDropped
attr title "packet drops, count"
scalar ToyEVDoSScenario.cs[0].wlan[0].mac packetDrop:sum(packetBytes) 0
attr interpolationmode none
attr source packetDropped
attr title "packet drops, sum(packetBytes)"
scalar ToyEVDoSScenario.cs[0].wlan[0].mac packetDropIncorrectlyReceived:count 0
attr interpolationmode none
attr source packetDropReasonIsIncorrectlyReceived(packetDropped)
attr title "packet drops: incorrectly received, count"
scalar ToyEVDoSScenario.cs[0].wlan[0].mac packetDropIncorrectlyReceived:sum(packetBytes) 0
attr interpolationmode none
attr source packetDropReasonIsIncorrectlyReceived(packetDropped)
attr title "packet drops: incorrectly received, sum(packetBytes)"
scalar ToyEVDoSScenario.cs[0].wlan[0].mac packetDropNotAddressedToUs:count 0
attr interpolationmode none
attr source packetDropReasonIsNotAddressedToUs(packetDropped)
attr title "packet drops: not addressed to us, count"
scalar ToyEVDoSScenario.cs[0].wlan[0].mac packetDropNotAddressedToUs:sum(packetBytes) 0
attr interpolationmode none
attr source packetDropReasonIsNotAddressedToUs(packetDropped)
attr title "packet drops: not addressed to us, sum(packetBytes)"
scalar ToyEVDoSScenario.cs[0].wlan[0].mac packetDropQueueOverflow:count 0
attr interpolationmode none
attr source packetDropReasonIsQueueOverflow(packetDropped)
attr title "packet drops: queue overflow, count"
scalar ToyEVDoSScenario.cs[0].wlan[0].mac packetDropQueueOverflow:sum(packetBytes) 0
attr interpolationmode none
attr source packetDropReasonIsQueueOverflow(packetDropped)
attr title "packet drops: queue overflow, sum(packetBytes)"
scalar ToyEVDoSScenario.cs[0].wlan[0].mac packetDropRetryLimitReached:count 0
attr interpolationmode none
attr source packetDropReasonIsRetryLimitReached(packetDropped)
attr title "packet drops: retry limit reached, count"
scalar ToyEVDoSScenario.cs[0].wlan[0].mac packetDropRetryLimitReached:sum(packetBytes) 0
attr interpolationmode none
attr source packetDropReasonIsRetryLimitReached(packetDropped)
attr title "packet drops: retry limit reached, sum(packetBytes)"
scalar ToyEVDoSScenario.cs[0].wlan[0].mac packetDropDuplicateDetected:count 0
attr interpolationmode none
attr source packetDropReasonIsDuplicateDetected(packetDropped)
attr title "packet drops: duplicate detected, count"
scalar ToyEVDoSScenario.cs[0].wlan[0].mac packetDropDuplicateDetected:sum(packetBytes) 0
attr interpolationmode none
attr source packetDropReasonIsDuplicateDetected(packetDropped)
attr title "packet drops: duplicate detected, sum(packetBytes)"
scalar ToyEVDoSScenario.cs[0].wlan[0].mac packetDropOther:count 0
attr interpolationmode none
attr source packetDropReasonIsOther(packetDropped)
attr title "packet drops: other, count"
scalar ToyEVDoSScenario.cs[0].wlan[0].mac packetDropOther:sum(packetBytes) 0
attr interpolationmode none
attr source packetDropReasonIsOther(packetDropped)
attr title "packet drops: other, sum(packetBytes)"
scalar ToyEVDoSScenario.cs[0].wlan[0].mac linkBroken:count 0
attr interpolationmode none
attr title "link breaks, count"
statistic ToyEVDoSScenario.cs[0].wlan[0].radio minSnir:histogram
field count 4664
field mean 8250.9748510288
field stddev 14088.637794928
field min 408.8437534165
field max 59891.272585597
field sum 38482546.705198
field sqrsum 1243076065724.6
attr source minimumSnir(packetSentToUpper)
attr title "Min SNIR, histogram"
bin	-inf	0
bin	350	2279
bin	1630	581
bin	2910	278
bin	4190	187
bin	5470	129
bin	6750	100
bin	8030	75
bin	9310	65
bin	10590	54
bin	11870	53
bin	13150	40
bin	14430	43
bin	15710	55
bin	16990	43
bin	18270	33
bin	19550	31
bin	20830	31
bin	22110	31
bin	23390	19
bin	24670	20
bin	25950	23
bin	27230	21
bin	28510	25
bin	29790	1
bin	31070	22
bin	32350	44
bin	33630	11
bin	34910	20
bin	36190	12
bin	37470	20
bin	38750	22
bin	40030	0
bin	41310	22
bin	42590	10
bin	43870	21
bin	45150	12
bin	46430	10
bin	47710	22
bin	48990	10
bin	50270	24
bin	51550	0
bin	52830	21
bin	54110	25
bin	55390	19
bin	56670	23
bin	57950	33
bin	59230	44
bin	60510	0
statistic ToyEVDoSScenario.cs[0].wlan[0].radio packetErrorRate:histogram
field count 4664
field mean 0
field stddev 0
field min 0
field max 0
field sum 0
field sqrsum 0
attr source packetErrorRate(packetSentToUpper)
attr title "Packet error rate, histogram"
bin	-inf	0
bin	-0.5	0
bin	-0.48	0
bin	-0.46	0
bin	-0.44	0
bin	-0.42	0
bin	-0.4	0
bin	-0.38	0
bin	-0.36	0
bin	-0.34	0
bin	-0.32	0
bin	-0.3	0
bin	-0.28	0
bin	-0.26	0
bin	-0.24	0
bin	-0.22	0
bin	-0.2	0
bin	-0.18	0
bin	-0.16	0
bin	-0.14	0
bin	-0.12	0
bin	-0.1	0
bin	-0.08	0
bin	-0.06	0
bin	-0.04	0
bin	-0.02	0
bin	0	4664
bin	0.02	0
bin	0.04	0
bin	0.06	0
bin	0.08	0
bin	0.1	0
bin	0.12	0
bin	0.14	0
bin	0.16	0
bin	0.18	0
bin	0.2	0
bin	0.22	0
bin	0.24	0
bin	0.26	0
bin	0.28	0
bin	0.3	0
bin	0.32	0
bin	0.34	0
bin	0.36	0
bin	0.38	0
bin	0.4	0
bin	0.42	0
bin	0.44	0
bin	0.46	0
bin	0.48	0
bin	0.5	0
statistic ToyEVDoSScenario.cs[0].wlan[0].radio bitErrorRate:histogram
field count 0
field mean nan
field stddev nan
field min nan
field max nan
field sum 0
field sqrsum 0
attr source bitErrorRate(packetSentToUpper)
attr title "Bit error rate, histogram"
bin	-inf	0
bin	0	0
bin	1	0
statistic ToyEVDoSScenario.cs[0].wlan[0].radio symbolErrorRate:histogram
field count 0
field mean nan
field stddev nan
field min nan
field max nan
field sum 0
field sqrsum 0
attr source symbolErrorRate(packetSentToUpper)
attr title "Symbol error rate, histogram"
bin	-inf	0
bin	0	0
bin	1	0
scalar ToyEVDoSScenario.cs[0].wlan[0].radio transmissionState:count 4
attr interpolationmode sample-hold
attr source transmissionStateChanged
attr title "Radio transmission state, count"
scalar ToyEVDoSScenario.cs[0].wlan[0].radio receptionState:count 9331
attr interpolationmode sample-hold
attr source receptionStateChanged
attr title "Radio reception state, count"
scalar ToyEVDoSScenario.cs[0].wlan[0].radio radioMode:count 5
attr interpolationmode sample-hold
attr source radioModeChanged
attr title "Radio mode, count"
statistic ToyEVDoSScenario.cs[0].wlan[0].radio radioChannel:histogram
field count 1
field mean 3
field stddev nan
field min 3
field max 3
field sum 3
field sqrsum 9
attr interpolationmode sample-hold
attr source radioChannelChanged
attr title "Radio channel, histogram"
bin	-inf	0
bin	2	0
bin	3	1
bin	4	0
scalar ToyEVDoSScenario.cs[0].ipv4.ip packetDropAddressResolutionFailed:count 0
attr interpolationmode none
attr source packetDropReasonIsAddressResolutionFailed(packetDropped)
attr title "packet drop: address resolution failed, count"
scalar ToyEVDoSScenario.cs[0].ipv4.ip packetDropAddressResolutionFailed:sum(packetBytes) 0
attr interpolationmode none
attr source packetDropReasonIsAddressResolutionFailed(packetDropped)
attr title "packet drop: address resolution failed, sum(packetBytes)"
scalar ToyEVDoSScenario.cs[0].ipv4.ip packetDropHopLimitReached:count 0
attr interpolationmode none
attr source packetDropReasonIsHopLimitReached(packetDropped)
attr title "packet drop: hop limit reached, count"
scalar ToyEVDoSScenario.cs[0].ipv4.ip packetDropHopLimitReached:sum(packetBytes) 0
attr interpolationmode none
attr source packetDropReasonIsHopLimitReached(packetDropped)
attr title "packet drop: hop limit reached, sum(packetBytes)"
scalar ToyEVDoSScenario.cs[0].ipv4.ip packetDropForwardingDisabled:count 0
attr interpolationmode none
attr source packetDropReasonIsForwardingDisabled(packetDropped)
attr title "packet drop: forwarding disabled, count"
scalar ToyEVDoSScenario.cs[0].ipv4.ip packetDropForwardingDisabled:sum(packetBytes) 0
attr interpolationmode none
attr source packetDropReasonIsForwardingDisabled(packetDropped)
attr title "packet drop: forwarding disabled, sum(packetBytes)"
scalar ToyEVDoSScenario.cs[0].ipv4.ip packetDropNoInterfaceFound:count 0
attr interpolationmode none
attr source packetDropReasonIsNoInterfaceFound(packetDropped)
attr title "packet drop: no interface found, count"
scalar ToyEVDoSScenario.cs[0].ipv4.ip packetDropNoInterfaceFound:sum(packetBytes) 0
attr interpolationmode none
attr source packetDropReasonIsNoInterfaceFound(packetDropped)
attr title "packet drop: no interface found, sum(packetBytes)"
scalar ToyEVDoSScenario.cs[0].ipv4.ip packetDropNoRouteFound:count 0
attr interpolationmode none
attr source packetDropReasonIsNoRouteFound(packetDropped)
attr title "packet drop: no route found, count"
scalar ToyEVDoSScenario.cs[0].ipv4.ip packetDropNoRouteFound:sum(packetBytes) 0
attr interpolationmode none
attr source packetDropReasonIsNoRouteFound(packetDropped)
attr title "packet drop: no route found, sum(packetBytes)"
scalar ToyEVDoSScenario.cs[0].ipv4.ip packetDropUndefined:count 0
attr interpolationmode none
attr source packetDropReasonIsUndefined(packetDropped)
attr title "packet drop: undefined, count"
scalar ToyEVDoSScenario.cs[0].ipv4.ip packetDropUndefined:sum(packetBytes) 0
attr interpolationmode none
attr source packetDropReasonIsUndefined(packetDropped)
attr title "packet drop: undefined, sum(packetBytes)"
scalar ToyEVDoSScenario.cs[0].ipv4.arp arpReplySent:count 0
attr source arpReplySent
attr title "ARP replies sent, count"
scalar ToyEVDoSScenario.cs[0].ipv4.arp arpReplySent:sum(packetBytes) 0
attr source arpReplySent
attr title "ARP replies sent, sum(packetBytes)"
scalar ToyEVDoSScenario.cs[0].ipv4.arp arpRequestSent:count 0
attr source arpRequestSent
attr title "ARP request sent, count"
scalar ToyEVDoSScenario.cs[0].ipv4.arp arpRequestSent:sum(packetBytes) 0
attr source arpRequestSent
attr title "ARP request sent, sum(packetBytes)"
scalar ToyEVDoSScenario.cs[0].ipv4.arp arpResolutionFailed:count 0
attr title "ARP failed resolutions, count"
scalar ToyEVDoSScenario.cs[0].ipv4.arp arpResolutionCompleted:count 0
attr title "ARP completed resolutions, count"
scalar ToyEVDoSScenario.cs[0].ipv4.arp arpResolutionInitiated:count 0
attr title "ARP initiated resolutions, count"
scalar ToyEVDoSScenario.cs[0].udp packetReceived:count 4423
attr interpolationmode none
attr source packetReceived
attr title "packets received, count"
scalar ToyEVDoSScenario.cs[0].udp packetReceived:sum(packetBytes) 3809353
attr interpolationmode none
attr source packetReceived
attr title "packets received, sum(packetBytes)"
scalar ToyEVDoSScenario.cs[0].udp packetSent:count 1
attr interpolationmode none
attr source packetSent
attr title "packets sent, count"
scalar ToyEVDoSScenario.cs[0].udp packetSent:sum(packetBytes) 108
attr interpolationmode none
attr source packetSent
attr title "packets sent, sum(packetBytes)"
scalar ToyEVDoSScenario.cs[0].udp passedUpPk:count 4423
attr interpolationmode none
attr source packetSentToUpper
attr title "packets passed up, count"
scalar ToyEVDoSScenario.cs[0].udp droppedPkWrongPort:count 0
attr interpolationmode none
attr source packetDropReasonIsNoPortFound(packetDropped)
attr title "packets dropped (wrong port), count"
scalar ToyEVDoSScenario.cs[0].udp droppedPkBadChecksum:count 0
attr interpolationmode none
attr source packetDropReasonIsIncorrectlyReceived(packetDropped)
attr title "packets dropped (checksum error), count"
scalar ToyEVDoSScenario.cs[0].app[0] packetsReceived 4423
scalar ToyEVDoSScenario.cs[0].app[0] chargeRequestsReceived 1
scalar ToyEVDoSScenario.cs[0].app[0] totalEnergyConsumed 6.9712255333892e-005
scalar ToyEVDoSScenario.cs[0].app[0] totalEnergyDelivered 54
scalar ToyEVDoSScenario.cs[0].app[0] finalCSBatteryWh 50000
scalar ToyEVDoSScenario.cs[0].app[0] finalCSSoC 1
scalar ToyEVDoSScenario.cs[0].app[0] avgPacketRate 76.961570196695
scalar ToyEVDoSScenario.cs[0].app[0] chargeRequestReceived:count 1
statistic ToyEVDoSScenario.cs[0].app[0] txDuration:stats
field count 4423
field mean 0.0011376800060291
field stddev 0.00053241107845164
field min 0.00013333333333333
field max 0.002
field sum 5.0319586666667
field sqrsum 0.0069782257688889
statistic ToyEVDoSScenario.cs[0].app[0] energyConsumption:stats
field count 4423
field mean 1.5761305750371e-008
field stddev 7.5581287609472e-009
field min 1.6849139038284e-009
field max 3.1547279672862e-008
field sum 6.9712255333892e-005
field sqrsum 1.3513642933086e-012
statistic ToyEVDoSScenario.cs[0].app[0] interArrivalTime:histogram
field count 4423
field mean 0.012993497872731
field stddev 0.10146959286545
field min 0
field max 6.374541696107
field sum 57.47024109109
field sqrsum 46.275997593076
bin	-inf	0
bin	0	4402
bin	0.1	5
bin	0.2	3
bin	0.3	3
bin	0.4	2
bin	0.5	0
bin	0.6	3
bin	0.7	1
bin	0.8	2
bin	0.9	1
bin	1	0
bin	1.1	0
bin	1.2	0
bin	1.3	0
bin	1.4	0
bin	1.5	0
bin	1.6	0
bin	1.7	0
bin	1.8	0
bin	1.9	0
bin	2	0
bin	2.1	0
bin	2.2	0
bin	2.3	0
bin	2.4	0
bin	2.5	0
bin	2.6	0
bin	2.7	0
bin	2.8	0
bin	2.9	0
bin	3	0
bin	3.1	0
bin	3.2	0
bin	3.3	0
bin	3.4	0
bin	3.5	0
bin	3.6	0
bin	3.7	0
bin	3.8	0
bin	3.9	0
bin	4	0
bin	4.1	0
bin	4.2	0
bin	4.3	0
bin	4.4	0
bin	4.5	0
bin	4.6	0
bin	4.7	0
bin	4.8	0
bin	4.9	0
bin	5	0
bin	5.1	0
bin	5.2	0
bin	5.3	0
bin	5.4	0
bin	5.5	0
bin	5.6	0
bin	5.7	0
bin	5.8	0
bin	5.9	0
bin	6	0
bin	6.1	0
bin	6.2	0
bin	6.3	1
bin	6.4	0
bin	6.5	0
bin	6.6	0
bin	6.7	0
bin	6.8	0
bin	6.9	0
bin	7	0
bin	7.1	0
bin	7.2	0
bin	7.3	0
bin	7.4	0
bin	7.5	0
bin	7.6	0
bin	7.7	0
bin	7.8	0
bin	7.9	0
bin	8	0
statistic ToyEVDoSScenario.cs[0].app[0] packetSize:histogram
field count 4423
field mean 853.26000452182
field stddev 399.30830883873
field min 100
field max 1500
field sum 3773969
field sqrsum 3925251995
bin	-inf	0
bin	0	0
bin	20	0
bin	40	0
bin	60	0
bin	80	0
bin	100	2
bin	120	0
bin	140	0
bin	160	0
bin	180	0
bin	200	98
bin	220	118
bin	240	92
bin	260	96
bin	280	103
bin	300	96
bin	320	88
bin	340	86
bin	360	90
bin	380	91
bin	400	10
bin	420	0
bin	440	0
bin	460	0
bin	480	0
bin	500	65
bin	520	75
bin	540	72
bin	560	66
bin	580	92
bin	600	77
bin	620	89
bin	640	80
bin	660	76
bin	680	73
bin	700	89
bin	720	74
bin	740	74
bin	760	67
bin	780	71
bin	800	68
bin	820	55
bin	840	80
bin	860	67
bin	880	79
bin	900	5
bin	920	0
bin	940	0
bin	960	0
bin	980	0
bin	1000	90
bin	1020	67
bin	1040	83
bin	1060	79
bin	1080	86
bin	1100	91
bin	1120	82
bin	1140	67
bin	1160	72
bin	1180	77
bin	1200	72
bin	1220	73
bin	1240	89
bin	1260	77
bin	1280	86
bin	1300	72
bin	1320	70
bin	1340	70
bin	1360	91
bin	1380	73
bin	1400	80
bin	1420	83
bin	1440	76
bin	1460	72
bin	1480	80
bin	1500	1
bin	1520	0
bin	1540	0
bin	1560	0
bin	1580	0
bin	1600	0
bin	1620	0
bin	1640	0
bin	1660	0
bin	1680	0
bin	1700	0
bin	1720	0
bin	1740	0
bin	1760	0
bin	1780	0
bin	1800	0
scalar ToyEVDoSScenario.cs[0].app[0] packetReceived:count 4423
scalar ToyEVDoSScenario.rsu[0].lo[0].lo rcvdPkFromHl:count 0
attr interpolationmode none
attr source packetReceivedFromUpper
attr title "packets received from higher layer, count"
scalar ToyEVDoSScenario.rsu[0].lo[0].lo rcvdPkFromHl:sum(packetBytes) 0
attr interpolationmode none
attr source packetReceivedFromUpper
attr title "packets received from higher layer, sum(packetBytes)"
scalar ToyEVDoSScenario.rsu[0].lo[0].lo passedUpPk:count 0
attr interpolationmode none
attr source packetSentToUpper
attr title "packets passed to higher layer, count"
scalar ToyEVDoSScenario.rsu[0].lo[0].lo passedUpPk:sum(packetBytes) 0
attr interpolationmode none
attr source packetSentToUpper
attr title "packets passed to higher layer, sum(packetBytes)"
scalar ToyEVDoSScenario.rsu[0].wlan[0].mac.dcf.channelAccess.pendingQueue packetPopped:count 0
attr interpolationmode none
attr title "packet popped, count"
scalar ToyEVDoSScenario.rsu[0].wlan[0].mac.dcf.channelAccess.pendingQueue packetPopped:sum(packetBytes) 0
attr interpolationmode none
attr title "packet popped, sum(packetBytes)"
statistic ToyEVDoSScenario.rsu[0].wlan[0].mac.dcf.channelAccess.pendingQueue queueingTime:histogram
field count 0
field mean nan
field stddev nan
field min nan
field max nan
field sum 0
field sqrsum 0
attr interpolationmode none
attr source queueingTime(packetPopped)
attr title "queueing times, histogram"
attr unit s
bin	-inf	0
bin	0	0
bin	1	0
scalar ToyEVDoSScenario.rsu[0].wlan[0].mac.dcf.channelAccess.pendingQueue queueLength:max nan
attr interpolationmode sample-hold
attr source "count(packetPushed) - count(packetPopped) - count(packetRemoved) - count(packetDropped)"
attr title "queue length, max"
scalar ToyEVDoSScenario.rsu[0].wlan[0].mac.dcf.channelAccess.pendingQueue queueLength:timeavg nan
attr interpolationmode sample-hold
attr source "count(packetPushed) - count(packetPopped) - count(packetRemoved) - count(packetDropped)"
attr title "queue length, timeavg"
scalar ToyEVDoSScenario.rsu[0].wlan[0].mac.dcf.channelAccess.pendingQueue packetPushed:count 0
attr interpolationmode none
attr title "packet pushed, count"
scalar ToyEVDoSScenario.rsu[0].wlan[0].mac.dcf.channelAccess.pendingQueue packetPushed:sum(packetBytes) 0
attr interpolationmode none
attr title "packet pushed, sum(packetBytes)"
scalar ToyEVDoSScenario.rsu[0].wlan[0].mac.dcf.channelAccess.pendingQueue packetDropQueueOverflow:count 0
attr interpolationmode none
attr source packetDropReasonIsQueueOverflow(packetDropped)
attr title "packet drops: queue overflow, count"
scalar ToyEVDoSScenario.rsu[0].wlan[0].mac.dcf.channelAccess.pendingQueue packetDropQueueOverflow:sum(packetBytes) 0
attr interpolationmode none
attr source packetDropReasonIsQueueOverflow(packetDropped)
attr title "packet drops: queue overflow, sum(packetBytes)"
scalar ToyEVDoSScenario.rsu[0].wlan[0].mac.dcf.channelAccess.pendingQueue packetRemoved:count 0
attr interpolationmode none
attr title "packets removed, count"
scalar ToyEVDoSScenario.rsu[0].wlan[0].mac.dcf.channelAccess.pendingQueue packetRemoved:sum(packetBytes) 0
attr interpolationmode none
attr title "packets removed, sum(packetBytes)"
statistic ToyEVDoSScenario.rsu[0].wlan[0].mac.dcf.channelAccess.inProgressFrames queueingTime:histogram
field count 0
field mean nan
field stddev nan
field min nan
field max nan
field sum 0
field sqrsum 0
attr interpolationmode none
attr source queueingTime(packetDequeued)
attr title "queueing times, histogram"
bin	-inf	0
bin	0	0
bin	1	0
scalar ToyEVDoSScenario.rsu[0].wlan[0].mac.dcf.channelAccess.inProgressFrames queueLength:max nan
attr interpolationmode sample-hold
attr source "count(packetEnqueued) - count(packetDequeued)"
attr title "queue length, max"
scalar ToyEVDoSScenario.rsu[0].wlan[0].mac.dcf.channelAccess.inProgressFrames queueLength:timeavg nan
attr interpolationmode sample-hold
attr source "count(packetEnqueued) - count(packetDequeued)"
attr title "queue length, timeavg"
scalar ToyEVDoSScenario.rsu[0].wlan[0].mac.dcf.channelAccess.contention stateChanged:count 18662
attr interpolationmode none
attr title "contention state changed, count"
scalar ToyEVDoSScenario.rsu[0].wlan[0].mac.dcf.channelAccess.contention channelAccessGranted:count 0
attr title "channel access granted, count"
scalar ToyEVDoSScenario.rsu[0].wlan[0].mac.dcf.channelAccess channelOwnershipChanged:count 0
attr interpolationmode sample-hold
attr title "channel ownership, count"
scalar ToyEVDoSScenario.rsu[0].wlan[0].mac.dcf.originatorMacDataService packetAggregated:count 0
attr title "packets aggregated, count"
scalar ToyEVDoSScenario.rsu[0].wlan[0].mac.dcf.originatorMacDataService packetFragmented:count 0
attr title "packets fragmented, count"
scalar ToyEVDoSScenario.rsu[0].wlan[0].mac.dcf.recipientMacDataService packetDropDuplicateDetected:count 0
attr interpolationmode none
attr source packetDropReasonIsDuplicateDetected(packetDropped)
attr title "packet drops: duplicate detected, count"
scalar ToyEVDoSScenario.rsu[0].wlan[0].mac.dcf.recipientMacDataService packetDropDuplicateDetected:sum(packetBytes) 0
attr interpolationmode none
attr source packetDropReasonIsDuplicateDetected(packetDropped)
attr title "packet drops: duplicate detected, sum(packetBytes)"
scalar ToyEVDoSScenario.rsu[0].wlan[0].mac.dcf.recipientMacDataService packetDeaggregated:count 0
attr title "packets deaggregated, count"
scalar ToyEVDoSScenario.rsu[0].wlan[0].mac.dcf.recipientMacDataService packetDefragmented:count 4423
attr title "packets defragmented, count"
scalar ToyEVDoSScenario.rsu[0].wlan[0].mac.dcf.recoveryProcedure retryLimitReached:count 0
attr title "retry limit reached, count"
scalar ToyEVDoSScenario.rsu[0].wlan[0].mac.dcf packetReceivedFromPeer:count 4665
attr interpolationmode none
attr title "packets received, count"
scalar ToyEVDoSScenario.rsu[0].wlan[0].mac.dcf packetReceivedFromPeer:sum(packetBytes) 4063817
attr interpolationmode none
attr title "packets received, sum(packetBytes)"
scalar ToyEVDoSScenario.rsu[0].wlan[0].mac.dcf packetReceivedFromPeerUnicast:count 0
attr interpolationmode none
attr source ieee80211Unicast(packetReceivedFromPeer)
attr title "packets received: unicast, count"
scalar ToyEVDoSScenario.rsu[0].wlan[0].mac.dcf packetReceivedFromPeerUnicast:sum(packetBytes) 0
attr interpolationmode none
attr source ieee80211Unicast(packetReceivedFromPeer)
attr title "packets received: unicast, sum(packetBytes)"
scalar ToyEVDoSScenario.rsu[0].wlan[0].mac.dcf packetReceivedFromPeerMulticast:count 4665
attr interpolationmode none
attr source ieee80211Multicast(packetReceivedFromPeer)
attr title "packets received: multicast, count"
scalar ToyEVDoSScenario.rsu[0].wlan[0].mac.dcf packetReceivedFromPeerMulticast:sum(packetBytes) 4063817
attr interpolationmode none
attr source ieee80211Multicast(packetReceivedFromPeer)
attr title "packets received: multicast, sum(packetBytes)"
scalar ToyEVDoSScenario.rsu[0].wlan[0].mac.dcf packetReceivedFromPeerBroadcast:count 0
attr interpolationmode none
attr source ieee80211Broadcast(packetReceivedFromPeer)
attr title "packets received: broadcast, count"
scalar ToyEVDoSScenario.rsu[0].wlan[0].mac.dcf packetReceivedFromPeerBroadcast:sum(packetBytes) 0
attr interpolationmode none
attr source ieee80211Broadcast(packetReceivedFromPeer)
attr title "packets received: broadcast, sum(packetBytes)"
scalar ToyEVDoSScenario.rsu[0].wlan[0].mac.dcf packetReceivedFromPeerWithRetry:count 0
attr interpolationmode none
attr source ieee80211Retry(packetReceivedFromPeer)
attr title "packets received: with retry, count"
scalar ToyEVDoSScenario.rsu[0].wlan[0].mac.dcf packetReceivedFromPeerWithRetry:sum(packetBytes) 0
attr interpolationmode none
attr source ieee80211Retry(packetReceivedFromPeer)
attr title "packets received: with retry, sum(packetBytes)"
scalar ToyEVDoSScenario.rsu[0].wlan[0].mac.dcf packetReceivedFromPeerWithoutRetry:count 4665
attr interpolationmode none
attr source ieee80211NotRetry(packetReceivedFromPeer)
attr title "packets received: without retry, count"
scalar ToyEVDoSScenario.rsu[0].wlan[0].mac.dcf packetReceivedFromPeerWithoutRetry:sum(packetBytes) 4063817
attr interpolationmode none
attr source ieee80211NotRetry(packetReceivedFromPeer)
attr title "packets received: without retry, sum(packetBytes)"
scalar ToyEVDoSScenario.rsu[0].wlan[0].mac.dcf packetSentToPeer:count 0
attr interpolationmode none
attr title "packets sent, count"
scalar ToyEVDoSScenario.rsu[0].wlan[0].mac.dcf packetSentToPeer:sum(packetBytes) 0
attr interpolationmode none
attr title "packets sent, sum(packetBytes)"
scalar ToyEVDoSScenario.rsu[0].wlan[0].mac.dcf packetSentToPeerUnicast:count 0
attr interpolationmode none
attr source ieee80211Unicast(packetSentToPeer)
attr title "packets sent: unicast, count"
scalar ToyEVDoSScenario.rsu[0].wlan[0].mac.dcf packetSentToPeerUnicast:sum(packetBytes) 0
attr interpolationmode none
attr source ieee80211Unicast(packetSentToPeer)
attr title "packets sent: unicast, sum(packetBytes)"
scalar ToyEVDoSScenario.rsu[0].wlan[0].mac.dcf packetSentToPeerMulticast:count 0
attr interpolationmode none
attr source ieee80211Multicast(packetSentToPeer)
attr title "packets sent: multicast, count"
scalar ToyEVDoSScenario.rsu[0].wlan[0].mac.dcf packetSentToPeerMulticast:sum(packetBytes) 0
attr interpolationmode none
attr source ieee80211Multicast(packetSentToPeer)
attr title "packets sent: multicast, sum(packetBytes)"
scalar ToyEVDoSScenario.rsu[0].wlan[0].mac.dcf packetSentToPeerBroadcast:count 0
attr interpolationmode none
attr source ieee80211Broadcast(packetSentToPeer)
attr title "packets sent: broadcast , count"
scalar ToyEVDoSScenario.rsu[0].wlan[0].mac.dcf packetSentToPeerBroadcast:sum(packetBytes) 0
attr interpolationmode none
attr source ieee80211Broadcast(packetSentToPeer)
attr title "packets sent: broadcast , sum(packetBytes)"
scalar ToyEVDoSScenario.rsu[0].wlan[0].mac.dcf packetSentToPeerWithRetry:count 0
attr interpolationmode none
attr source ieee80211Retry(packetSentToPeer)
attr title "packets sent: with retry, count"
scalar ToyEVDoSScenario.rsu[0].wlan[0].mac.dcf packetSentToPeerWithRetry:sum(packetBytes) 0
attr interpolationmode none
attr source ieee80211Retry(packetSentToPeer)
attr title "packets sent: with retry, sum(packetBytes)"
scalar ToyEVDoSScenario.rsu[0].wlan[0].mac.dcf packetSentToPeerWithoutRetry:count 0
attr interpolationmode none
attr source ieee80211NotRetry(packetSentToPeer)
attr title "packets sent: without retry, count"
scalar ToyEVDoSScenario.rsu[0].wlan[0].mac.dcf packetSentToPeerWithoutRetry:sum(packetBytes) 0
attr interpolationmode none
attr source ieee80211NotRetry(packetSentToPeer)
attr title "packets sent: without retry, sum(packetBytes)"
scalar ToyEVDoSScenario.rsu[0].wlan[0].mac.dcf packetDrop:count 0
attr interpolationmode none
attr source packetDropped
attr title "packet drops, count"
scalar ToyEVDoSScenario.rsu[0].wlan[0].mac.dcf packetDrop:sum(packetBytes) 0
attr interpolationmode none
attr source packetDropped
attr title "packet drops, sum(packetBytes)"
scalar ToyEVDoSScenario.rsu[0].wlan[0].mac.dcf packetDropNotAddressedToUs:count 0
attr interpolationmode none
attr source packetDropReasonIsNotAddressedToUs(packetDropped)
attr title "packet drops: not addressed to us, count"
scalar ToyEVDoSScenario.rsu[0].wlan[0].mac.dcf packetDropNotAddressedToUs:sum(packetBytes) 0
attr interpolationmode none
attr source packetDropReasonIsNotAddressedToUs(packetDropped)
attr title "packet drops: not addressed to us, sum(packetBytes)"
scalar ToyEVDoSScenario.rsu[0].wlan[0].mac.dcf packetDropQueueOverflow:count 0
attr interpolationmode none
attr source packetDropReasonIsQueueOverflow(packetDropped)
attr title "packet drops: queue overflow, count"
scalar ToyEVDoSScenario.rsu[0].wlan[0].mac.dcf packetDropQueueOverflow:sum(packetBytes) 0
attr interpolationmode none
attr source packetDropReasonIsQueueOverflow(packetDropped)
attr title "packet drops: queue overflow, sum(packetBytes)"
scalar ToyEVDoSScenario.rsu[0].wlan[0].mac.dcf packetDropRetryLimitReached:count 0
attr interpolationmode none
attr source packetDropReasonIsRetryLimitReached(packetDropped)
attr title "packet drops: retry limit reached, count"
scalar ToyEVDoSScenario.rsu[0].wlan[0].mac.dcf packetDropRetryLimitReached:sum(packetBytes) 0
attr interpolationmode none
attr source packetDropReasonIsRetryLimitReached(packetDropped)
attr title "packet drops: retry limit reached, sum(packetBytes)"
scalar ToyEVDoSScenario.rsu[0].wlan[0].mac.dcf linkBroken:count 0
attr interpolationmode none
attr title "link breaks, count"
scalar ToyEVDoSScenario.rsu[0].wlan[0].mac.dcf frameSequenceFinished:count 0
attr title "finished frame sequences, count"
statistic ToyEVDoSScenario.rsu[0].wlan[0].mac.dcf frameSequenceDuration:histogram
field count 0
field mean nan
field stddev nan
field min nan
field max nan
field sum 0
field sqrsum 0
attr source frameSequenceDuration(frameSequenceFinished)
attr title "frame sequence durations, histogram"
bin	-inf	0
bin	0	0
bin	1	0
statistic ToyEVDoSScenario.rsu[0].wlan[0].mac.dcf frameSequenceNumPackets:histogram
field count 0
field mean nan
field stddev nan
field min nan
field max nan
field sum 0
field sqrsum 0
attr source frameSequenceNumPackets(frameSequenceFinished)
attr title "frame sequences: number of packets, histogram"
bin	-inf	0
bin	0	0
bin	1	0
scalar ToyEVDoSScenario.rsu[0].wlan[0].mac packetReceivedFromLower:count 4665
attr interpolationmode none
attr title "packets received from lower layer, count"
scalar ToyEVDoSScenario.rsu[0].wlan[0].mac packetReceivedFromLower:sum(packetBytes) 4063817
attr interpolationmode none
attr title "packets received from lower layer, sum(packetBytes)"
scalar ToyEVDoSScenario.rsu[0].wlan[0].mac packetSentToLower:count 0
attr interpolationmode none
attr title "packets sent to lower layer, count"
scalar ToyEVDoSScenario.rsu[0].wlan[0].mac packetSentToLower:sum(packetBytes) 0
attr interpolationmode none
attr title "packets sent to lower layer, sum(packetBytes)"
scalar ToyEVDoSScenario.rsu[0].wlan[0].mac packetReceivedFromUpper:count 0
attr interpolationmode none
attr title "packets received from upper layer, count"
scalar ToyEVDoSScenario.rsu[0].wlan[0].mac packetReceivedFromUpper:sum(packetBytes) 0
attr interpolationmode none
attr title "packets received from upper layer, sum(packetBytes)"
scalar ToyEVDoSScenario.rsu[0].wlan[0].mac packetSentToUpper:count 4423
attr interpolationmode none
attr title "packets sent to upper layer, count"
scalar ToyEVDoSScenario.rsu[0].wlan[0].mac packetSentToUpper:sum(packetBytes) 3933197
attr interpolationmode none
attr title "packets sent to upper layer, sum(packetBytes)"
scalar ToyEVDoSScenario.rsu[0].wlan[0].mac packetDrop:count 0
attr interpolationmode none
attr source packetDropped
attr title "packet drops, count"
scalar ToyEVDoSScenario.rsu[0].wlan[0].mac packetDrop:sum(packetBytes) 0
attr interpolationmode none
attr source packetDropped
attr title "packet drops, sum(packetBytes)"
scalar ToyEVDoSScenario.rsu[0].wlan[0].mac packetDropIncorrectlyReceived:count 0
attr interpolationmode none
attr source packetDropReasonIsIncorrectlyReceived(packetDropped)
attr title "packet drops: incorrectly received, count"
scalar ToyEVDoSScenario.rsu[0].wlan[0].mac packetDropIncorrectlyReceived:sum(packetBytes) 0
attr interpolationmode none
attr source packetDropReasonIsIncorrectlyReceived(packetDropped)
attr title "packet drops: incorrectly received, sum(packetBytes)"
scalar ToyEVDoSScenario.rsu[0].wlan[0].mac packetDropNotAddressedToUs:count 0
attr interpolationmode none
attr source packetDropReasonIsNotAddressedToUs(packetDropped)
attr title "packet drops: not addressed to us, count"
scalar ToyEVDoSScenario.rsu[0].wlan[0].mac packetDropNotAddressedToUs:sum(packetBytes) 0
attr interpolationmode none
attr source packetDropReasonIsNotAddressedToUs(packetDropped)
attr title "packet drops: not addressed to us, sum(packetBytes)"
scalar ToyEVDoSScenario.rsu[0].wlan[0].mac packetDropQueueOverflow:count 0
attr interpolationmode none
attr source packetDropReasonIsQueueOverflow(packetDropped)
attr title "packet drops: queue overflow, count"
scalar ToyEVDoSScenario.rsu[0].wlan[0].mac packetDropQueueOverflow:sum(packetBytes) 0
attr interpolationmode none
attr source packetDropReasonIsQueueOverflow(packetDropped)
attr title "packet drops: queue overflow, sum(packetBytes)"
scalar ToyEVDoSScenario.rsu[0].wlan[0].mac packetDropRetryLimitReached:count 0
attr interpolationmode none
attr source packetDropReasonIsRetryLimitReached(packetDropped)
attr title "packet drops: retry limit reached, count"
scalar ToyEVDoSScenario.rsu[0].wlan[0].mac packetDropRetryLimitReached:sum(packetBytes) 0
attr interpolationmode none
attr source packetDropReasonIsRetryLimitReached(packetDropped)
attr title "packet drops: retry limit reached, sum(packetBytes)"
scalar ToyEVDoSScenario.rsu[0].wlan[0].mac packetDropDuplicateDetected:count 0
attr interpolationmode none
attr source packetDropReasonIsDuplicateDetected(packetDropped)
attr title "packet drops: duplicate detected, count"
scalar ToyEVDoSScenario.rsu[0].wlan[0].mac packetDropDuplicateDetected:sum(packetBytes) 0
attr interpolationmode none
attr source packetDropReasonIsDuplicateDetected(packetDropped)
attr title "packet drops: duplicate detected, sum(packetBytes)"
scalar ToyEVDoSScenario.rsu[0].wlan[0].mac packetDropOther:count 0
attr interpolationmode none
attr source packetDropReasonIsOther(packetDropped)
attr title "packet drops: other, count"
scalar ToyEVDoSScenario.rsu[0].wlan[0].mac packetDropOther:sum(packetBytes) 0
attr interpolationmode none
attr source packetDropReasonIsOther(packetDropped)
attr title "packet drops: other, sum(packetBytes)"
scalar ToyEVDoSScenario.rsu[0].wlan[0].mac linkBroken:count 0
attr interpolationmode none
attr title "link breaks, count"
statistic ToyEVDoSScenario.rsu[0].wlan[0].radio minSnir:histogram
field count 4665
field mean 6706.5651505292
field stddev 9078.1850542482
field min 728.59444197266
field max 40614.592169713
field sum 31286126.427219
field sqrsum 594198747444.31
attr source minimumSnir(packetSentToUpper)
attr title "Min SNIR, histogram"
bin	-inf	0
bin	400	386
bin	1040	535
bin	1680	1099
bin	2320	300
bin	2960	213
bin	3600	175
bin	4240	183
bin	4880	569
bin	5520	104
bin	6160	86
bin	6800	62
bin	7440	53
bin	8080	53
bin	8720	23
bin	9360	45
bin	10000	32
bin	10640	35
bin	11280	20
bin	11920	25
bin	12560	23
bin	13200	22
bin	13840	21
bin	14480	22
bin	15120	21
bin	15760	24
bin	16400	21
bin	17040	9
bin	17680	11
bin	18320	21
bin	18960	21
bin	19600	0
bin	20240	23
bin	20880	21
bin	21520	0
bin	22160	21
bin	22800	0
bin	23440	20
bin	24080	13
bin	24720	11
bin	25360	10
bin	26000	10
bin	26640	23
bin	27280	0
bin	27920	22
bin	28560	1
bin	29200	21
bin	29840	0
bin	30480	22
bin	31120	0
bin	31760	20
bin	32400	0
bin	33040	22
bin	33680	1
bin	34320	21
bin	34960	1
bin	35600	23
bin	36240	9
bin	36880	11
bin	37520	21
bin	38160	10
bin	38800	20
bin	39440	21
bin	40080	53
bin	40720	0
statistic ToyEVDoSScenario.rsu[0].wlan[0].radio packetErrorRate:histogram
field count 4665
field mean 0
field stddev 0
field min 0
field max 0
field sum 0
field sqrsum 0
attr source packetErrorRate(packetSentToUpper)
attr title "Packet error rate, histogram"
bin	-inf	0
bin	-0.5	0
bin	-0.48	0
bin	-0.46	0
bin	-0.44	0
bin	-0.42	0
bin	-0.4	0
bin	-0.38	0
bin	-0.36	0
bin	-0.34	0
bin	-0.32	0
bin	-0.3	0
bin	-0.28	0
bin	-0.26	0
bin	-0.24	0
bin	-0.22	0
bin	-0.2	0
bin	-0.18	0
bin	-0.16	0
bin	-0.14	0
bin	-0.12	0
bin	-0.1	0
bin	-0.08	0
bin	-0.06	0
bin	-0.04	0
bin	-0.02	0
bin	0	4665
bin	0.02	0
bin	0.04	0
bin	0.06	0
bin	0.08	0
bin	0.1	0
bin	0.12	0
bin	0.14	0
bin	0.16	0
bin	0.18	0
bin	0.2	0
bin	0.22	0
bin	0.24	0
bin	0.26	0
bin	0.28	0
bin	0.3	0
bin	0.32	0
bin	0.34	0
bin	0.36	0
bin	0.38	0
bin	0.4	0
bin	0.42	0
bin	0.44	0
bin	0.46	0
bin	0.48	0
bin	0.5	0
statistic ToyEVDoSScenario.rsu[0].wlan[0].radio bitErrorRate:histogram
field count 0
field mean nan
field stddev nan
field min nan
field max nan
field sum 0
field sqrsum 0
attr source bitErrorRate(packetSentToUpper)
attr title "Bit error rate, histogram"
bin	-inf	0
bin	0	0
bin	1	0
statistic ToyEVDoSScenario.rsu[0].wlan[0].radio symbolErrorRate:histogram
field count 0
field mean nan
field stddev nan
field min nan
field max nan
field sum 0
field sqrsum 0
attr source symbolErrorRate(packetSentToUpper)
attr title "Symbol error rate, histogram"
bin	-inf	0
bin	0	0
bin	1	0
scalar ToyEVDoSScenario.rsu[0].wlan[0].radio transmissionState:count 0
attr interpolationmode sample-hold
attr source transmissionStateChanged
attr title "Radio transmission state, count"
scalar ToyEVDoSScenario.rsu[0].wlan[0].radio receptionState:count 9331
attr interpolationmode sample-hold
attr source receptionStateChanged
attr title "Radio reception state, count"
scalar ToyEVDoSScenario.rsu[0].wlan[0].radio radioMode:count 3
attr interpolationmode sample-hold
attr source radioModeChanged
attr title "Radio mode, count"
statistic ToyEVDoSScenario.rsu[0].wlan[0].radio radioChannel:histogram
field count 1
field mean 3
field stddev nan
field min 3
field max 3
field sum 3
field sqrsum 9
attr interpolationmode sample-hold
attr source radioChannelChanged
attr title "Radio channel, histogram"
bin	-inf	0
bin	2	0
bin	3	1
bin	4	0
scalar ToyEVDoSScenario.rsu[0].ipv4.ip packetDropAddressResolutionFailed:count 0
attr interpolationmode none
attr source packetDropReasonIsAddressResolutionFailed(packetDropped)
attr title "packet drop: address resolution failed, count"
scalar ToyEVDoSScenario.rsu[0].ipv4.ip packetDropAddressResolutionFailed:sum(packetBytes) 0
attr interpolationmode none
attr source packetDropReasonIsAddressResolutionFailed(packetDropped)
attr title "packet drop: address resolution failed, sum(packetBytes)"
scalar ToyEVDoSScenario.rsu[0].ipv4.ip packetDropHopLimitReached:count 0
attr interpolationmode none
attr source packetDropReasonIsHopLimitReached(packetDropped)
attr title "packet drop: hop limit reached, count"
scalar ToyEVDoSScenario.rsu[0].ipv4.ip packetDropHopLimitReached:sum(packetBytes) 0
attr interpolationmode none
attr source packetDropReasonIsHopLimitReached(packetDropped)
attr title "packet drop: hop limit reached, sum(packetBytes)"
scalar ToyEVDoSScenario.rsu[0].ipv4.ip packetDropForwardingDisabled:count 0
attr interpolationmode none
attr source packetDropReasonIsForwardingDisabled(packetDropped)
attr title "packet drop: forwarding disabled, count"
scalar ToyEVDoSScenario.rsu[0].ipv4.ip packetDropForwardingDisabled:sum(packetBytes) 0
attr interpolationmode none
attr source packetDropReasonIsForwardingDisabled(packetDropped)
attr title "packet drop: forwarding disabled, sum(packetBytes)"
scalar ToyEVDoSScenario.rsu[0].ipv4.ip packetDropNoInterfaceFound:count 0
attr interpolationmode none
attr source packetDropReasonIsNoInterfaceFound(packetDropped)
attr title "packet drop: no interface found, count"
scalar ToyEVDoSScenario.rsu[0].ipv4.ip packetDropNoInterfaceFound:sum(packetBytes) 0
attr interpolationmode none
attr source packetDropReasonIsNoInterfaceFound(packetDropped)
attr title "packet drop: no interface found, sum(packetBytes)"
scalar ToyEVDoSScenario.rsu[0].ipv4.ip packetDropNoRouteFound:count 0
attr interpolationmode none
attr source packetDropReasonIsNoRouteFound(packetDropped)
attr title "packet drop: no route found, count"
scalar ToyEVDoSScenario.rsu[0].ipv4.ip packetDropNoRouteFound:sum(packetBytes) 0
attr interpolationmode none
attr source packetDropReasonIsNoRouteFound(packetDropped)
attr title "packet drop: no route found, sum(packetBytes)"
scalar ToyEVDoSScenario.rsu[0].ipv4.ip packetDropUndefined:count 0
attr interpolationmode none
attr source packetDropReasonIsUndefined(packetDropped)
attr title "packet drop: undefined, count"
scalar ToyEVDoSScenario.rsu[0].ipv4.ip packetDropUndefined:sum(packetBytes) 0
attr interpolationmode none
attr source packetDropReasonIsUndefined(packetDropped)
attr title "packet drop: undefined, sum(packetBytes)"
scalar ToyEVDoSScenario.rsu[0].ipv4.arp arpReplySent:count 0
attr source arpReplySent
attr title "ARP replies sent, count"
scalar ToyEVDoSScenario.rsu[0].ipv4.arp arpReplySent:sum(packetBytes) 0
attr source arpReplySent
attr title "ARP replies sent, sum(packetBytes)"
scalar ToyEVDoSScenario.rsu[0].ipv4.arp arpRequestSent:count 0
attr source arpRequestSent
attr title "ARP request sent, count"
scalar ToyEVDoSScenario.rsu[0].ipv4.arp arpRequestSent:sum(packetBytes) 0
attr source arpRequestSent
attr title "ARP request sent, sum(packetBytes)"
scalar ToyEVDoSScenario.rsu[0].ipv4.arp arpResolutionFailed:count 0
attr title "ARP failed resolutions, count"
scalar ToyEVDoSScenario.rsu[0].ipv4.arp arpResolutionCompleted:count 0
attr title "ARP completed resolutions, count"
scalar ToyEVDoSScenario.rsu[0].ipv4.arp arpResolutionInitiated:count 0
attr title "ARP initiated resolutions, count"
scalar ToyEVDoSScenario.rsu[0].udp packetReceived:count 4423
attr interpolationmode none
attr source packetReceived
attr title "packets received, count"
scalar ToyEVDoSScenario.rsu[0].udp packetReceived:sum(packetBytes) 3809353
attr interpolationmode none
attr source packetReceived
attr title "packets received, sum(packetBytes)"
scalar ToyEVDoSScenario.rsu[0].udp packetSent:count 0
attr interpolationmode none
attr source packetSent
attr title "packets sent, count"
scalar ToyEVDoSScenario.rsu[0].udp packetSent:sum(packetBytes) 0
attr interpolationmode none
attr source packetSent
attr title "packets sent, sum(packetBytes)"
scalar ToyEVDoSScenario.rsu[0].udp passedUpPk:count 173
attr interpolationmode none
attr source packetSentToUpper
attr title "packets passed up, count"
scalar ToyEVDoSScenario.rsu[0].udp droppedPkWrongPort:count 4250
attr interpolationmode none
attr source packetDropReasonIsNoPortFound(packetDropped)
attr title "packets dropped (wrong port), count"
scalar ToyEVDoSScenario.rsu[0].udp droppedPkBadChecksum:count 0
attr interpolationmode none
attr source packetDropReasonIsIncorrectlyReceived(packetDropped)
attr title "packets dropped (checksum error), count"
scalar ToyEVDoSScenario.rsu[0].app[0] packetsReceived 173
scalar ToyEVDoSScenario.rsu[0].app[0] packetsSent 0
scalar ToyEVDoSScenario.rsu[0].app[0] totalEnergyConsumed 0.0033902623565031
scalar ToyEVDoSScenario.rsu[0].app[0] avgPacketRate 3.010253593495
scalar ToyEVDoSScenario.rsu[0].app[0] finalBatteryLevel 0
statistic ToyEVDoSScenario.rsu[0].app[0] txDuration:stats
field count 173
field mean 0.00039039691714836
field stddev 8.2698538434331e-005
field min 0.00013333333333333
field max 0.00053333333333333
field sum 0.067538666666667
field sqrsum 2.7543203555556e-005
attr interpolationmode none
attr title "tx duration estimate, stats"
attr unit s
statistic ToyEVDoSScenario.rsu[0].app[0] energyConsumption:stats
field count 173
field mean 1.9596892234122e-005
field stddev 4.5679882607351e-006
field min 5.8533136995199e-006
field max 3.0266896309253e-005
field sum 0.0033902623565031
field sqrsum 7.0027646926827e-008
attr interpolationmode none
attr title "energy consumption, stats"
attr unit J
statistic ToyEVDoSScenario.rsu[0].app[0] interArrivalTime:histogram
field count 173
field mean 0.33056899228925
field stddev 0.50241460252422
field min 0.007821438901
field max 6.374541459011
field sum 57.18843566604
field sqrsum 62.321037995407
attr interpolationmode none
attr title "inter arrival time, histogram"
attr unit s
bin	-inf	0
bin	0	29
bin	0.1	35
bin	0.2	29
bin	0.3	35
bin	0.4	18
bin	0.5	11
bin	0.6	8
bin	0.7	3
bin	0.8	3
bin	0.9	1
bin	1	0
bin	1.1	0
bin	1.2	0
bin	1.3	0
bin	1.4	0
bin	1.5	0
bin	1.6	0
bin	1.7	0
bin	1.8	0
bin	1.9	0
bin	2	0
bin	2.1	0
bin	2.2	0
bin	2.3	0
bin	2.4	0
bin	2.5	0
bin	2.6	0
bin	2.7	0
bin	2.8	0
bin	2.9	0
bin	3	0
bin	3.1	0
bin	3.2	0
bin	3.3	0
bin	3.4	0
bin	3.5	0
bin	3.6	0
bin	3.7	0
bin	3.8	0
bin	3.9	0
bin	4	0
bin	4.1	0
bin	4.2	0
bin	4.3	0
bin	4.4	0
bin	4.5	0
bin	4.6	0
bin	4.7	0
bin	4.8	0
bin	4.9	0
bin	5	0
bin	5.1	0
bin	5.2	0
bin	5.3	0
bin	5.4	0
bin	5.5	0
bin	5.6	0
bin	5.7	0
bin	5.8	0
bin	5.9	0
bin	6	0
bin	6.1	0
bin	6.2	0
bin	6.3	1
bin	6.4	0
bin	6.5	0
bin	6.6	0
bin	6.7	0
bin	6.8	0
bin	6.9	0
bin	7	0
bin	7.1	0
bin	7.2	0
bin	7.3	0
bin	7.4	0
bin	7.5	0
bin	7.6	0
bin	7.7	0
bin	7.8	0
bin	7.9	0
bin	8	0
statistic ToyEVDoSScenario.rsu[0].app[0] packetSize:histogram
field count 173
field mean 292.79768786127
field stddev 62.023903825749
field min 100
field max 400
field sum 50654
field sqrsum 15493052
attr interpolationmode none
attr title "packet size, histogram"
attr unit B
bin	-inf	0
bin	25	0
bin	30	0
bin	35	0
bin	40	0
bin	45	0
bin	50	0
bin	55	0
bin	60	0
bin	65	0
bin	70	0
bin	75	0
bin	80	0
bin	85	0
bin	90	0
bin	95	0
bin	100	1
bin	105	0
bin	110	0
bin	115	0
bin	120	0
bin	125	0
bin	130	0
bin	135	0
bin	140	0
bin	145	0
bin	150	0
bin	155	0
bin	160	0
bin	165	0
bin	170	0
bin	175	0
bin	180	0
bin	185	0
bin	190	0
bin	195	0
bin	200	6
bin	205	8
bin	210	3
bin	215	7
bin	220	6
bin	225	1
bin	230	8
bin	235	8
bin	240	4
bin	245	4
bin	250	2
bin	255	3
bin	260	2
bin	265	3
bin	270	4
bin	275	8
bin	280	4
bin	285	3
bin	290	4
bin	295	5
bin	300	4
bin	305	0
bin	310	8
bin	315	5
bin	320	2
bin	325	3
bin	330	6
bin	335	4
bin	340	3
bin	345	4
bin	350	6
bin	355	1
bin	360	4
bin	365	2
bin	370	2
bin	375	9
bin	380	2
bin	385	5
bin	390	2
bin	395	6
bin	400	1
bin	405	0
bin	410	0
bin	415	0
bin	420	0
bin	425	0
bin	430	0
bin	435	0
bin	440	0
bin	445	0
bin	450	0
bin	455	0
bin	460	0
bin	465	0
bin	470	0
bin	475	0
scalar ToyEVDoSScenario.rsu[0].app[0] packetReceived:count 173
attr interpolationmode none
attr title "packets received, count"
scalar ToyEVDoSScenario.rsu[0].app[0] packetReceived:sum 15051
attr interpolationmode none
attr title "packets received, sum"
scalar ToyEVDoSScenario.ev[0].lo[0].lo rcvdPkFromHl:count 4334
attr interpolationmode none
attr source packetReceivedFromUpper
attr title "packets received from higher layer, count"
scalar ToyEVDoSScenario.ev[0].lo[0].lo rcvdPkFromHl:sum(packetBytes) 3869934
attr interpolationmode none
attr source packetReceivedFromUpper
attr title "packets received from higher layer, sum(packetBytes)"
scalar ToyEVDoSScenario.ev[0].lo[0].lo passedUpPk:count 4334
attr interpolationmode none
attr source packetSentToUpper
attr title "packets passed to higher layer, count"
scalar ToyEVDoSScenario.ev[0].lo[0].lo passedUpPk:sum(packetBytes) 3869934
attr interpolationmode none
attr source packetSentToUpper
attr title "packets passed to higher layer, sum(packetBytes)"
scalar ToyEVDoSScenario.ev[0].wlan[0].mac.dcf.channelAccess.pendingQueue packetPopped:count 4334
attr interpolationmode none
attr title "packet popped, count"
scalar ToyEVDoSScenario.ev[0].wlan[0].mac.dcf.channelAccess.pendingQueue packetPopped:sum(packetBytes) 4025958
attr interpolationmode none
attr title "packet popped, sum(packetBytes)"
statistic ToyEVDoSScenario.ev[0].wlan[0].mac.dcf.channelAccess.pendingQueue queueingTime:histogram
field count 4334
field mean 4.6662285140748e-007
field stddev 1.2794025329272e-005
field min 0
field max 0.00053040346
field sum 0.002022343438
field sqrsum 7.1019980717976e-007
attr interpolationmode none
attr source queueingTime(packetPopped)
attr title "queueing times, histogram"
attr unit s
bin	-inf	0
bin	-0.5	0
bin	-0.48	0
bin	-0.46	0
bin	-0.44	0
bin	-0.42	0
bin	-0.4	0
bin	-0.38	0
bin	-0.36	0
bin	-0.34	0
bin	-0.32	0
bin	-0.3	0
bin	-0.28	0
bin	-0.26	0
bin	-0.24	0
bin	-0.22	0
bin	-0.2	0
bin	-0.18	0
bin	-0.16	0
bin	-0.14	0
bin	-0.12	0
bin	-0.1	0
bin	-0.08	0
bin	-0.06	0
bin	-0.04	0
bin	-0.02	0
bin	0	4334
bin	0.02	0
bin	0.04	0
bin	0.06	0
bin	0.08	0
bin	0.1	0
bin	0.12	0
bin	0.14	0
bin	0.16	0
bin	0.18	0
bin	0.2	0
bin	0.22	0
bin	0.24	0
bin	0.26	0
bin	0.28	0
bin	0.3	0
bin	0.32	0
bin	0.34	0
bin	0.36	0
bin	0.38	0
bin	0.4	0
bin	0.42	0
bin	0.44	0
bin	0.46	0
bin	0.48	0
bin	0.5	0
scalar ToyEVDoSScenario.ev[0].wlan[0].mac.dcf.channelAccess.pendingQueue queueLength:max 1
attr interpolationmode sample-hold
attr source "count(packetPushed) - count(packetPopped) - count(packetRemoved) - count(packetDropped)"
attr title "queue length, max"
scalar ToyEVDoSScenario.ev[0].wlan[0].mac.dcf.channelAccess.pendingQueue queueLength:timeavg 3.9579418968591e-005
attr interpolationmode sample-hold
attr source "count(packetPushed) - count(packetPopped) - count(packetRemoved) - count(packetDropped)"
attr title "queue length, timeavg"
scalar ToyEVDoSScenario.ev[0].wlan[0].mac.dcf.channelAccess.pendingQueue packetPushed:count 4334
attr interpolationmode none
attr title "packet pushed, count"
scalar ToyEVDoSScenario.ev[0].wlan[0].mac.dcf.channelAccess.pendingQueue packetPushed:sum(packetBytes) 4025958
attr interpolationmode none
attr title "packet pushed, sum(packetBytes)"
scalar ToyEVDoSScenario.ev[0].wlan[0].mac.dcf.channelAccess.pendingQueue packetDropQueueOverflow:count 0
attr interpolationmode none
attr source packetDropReasonIsQueueOverflow(packetDropped)
attr title "packet drops: queue overflow, count"
scalar ToyEVDoSScenario.ev[0].wlan[0].mac.dcf.channelAccess.pendingQueue packetDropQueueOverflow:sum(packetBytes) 0
attr interpolationmode none
attr source packetDropReasonIsQueueOverflow(packetDropped)
attr title "packet drops: queue overflow, sum(packetBytes)"
scalar ToyEVDoSScenario.ev[0].wlan[0].mac.dcf.channelAccess.pendingQueue packetRemoved:count 0
attr interpolationmode none
attr title "packets removed, count"
scalar ToyEVDoSScenario.ev[0].wlan[0].mac.dcf.channelAccess.pendingQueue packetRemoved:sum(packetBytes) 0
attr interpolationmode none
attr title "packets removed, sum(packetBytes)"
statistic ToyEVDoSScenario.ev[0].wlan[0].mac.dcf.channelAccess.inProgressFrames queueingTime:histogram
field count 4576
field mean 0.00036111810764073
field stddev 0.0001620990969246
field min 0.000118
field max 0.001034460564
field sum 1.652476460564
field sqrsum 0.00071695240865847
attr interpolationmode none
attr source queueingTime(packetDequeued)
attr title "queueing times, histogram"
bin	-inf	0
bin	0	0
bin	2e-005	0
bin	4e-005	0
bin	6e-005	0
bin	8e-005	0
bin	0.0001	38
bin	0.00012	278
bin	0.00014	269
bin	0.00016	246
bin	0.00018	50
bin	0.0002	33
bin	0.00022	217
bin	0.00024	254
bin	0.00026	223
bin	0.00028	241
bin	0.0003	211
bin	0.00032	196
bin	0.00034	119
bin	0.00036	0
bin	0.00038	203
bin	0.0004	251
bin	0.00042	227
bin	0.00044	224
bin	0.00046	241
bin	0.00048	222
bin	0.0005	239
bin	0.00052	352
bin	0.00054	0
bin	0.00056	0
bin	0.00058	0
bin	0.0006	2
bin	0.00062	24
bin	0.00064	10
bin	0.00066	13
bin	0.00068	17
bin	0.0007	13
bin	0.00072	15
bin	0.00074	17
bin	0.00076	12
bin	0.00078	17
bin	0.0008	15
bin	0.00082	16
bin	0.00084	17
bin	0.00086	14
bin	0.00088	13
bin	0.0009	10
bin	0.00092	16
bin	0.00094	0
bin	0.00096	0
bin	0.00098	0
bin	0.001	0
bin	0.00102	1
bin	0.00104	0
scalar ToyEVDoSScenario.ev[0].wlan[0].mac.dcf.channelAccess.inProgressFrames queueLength:max 2
attr interpolationmode sample-hold
attr source "count(packetEnqueued) - count(packetDequeued)"
attr title "queue length, max"
scalar ToyEVDoSScenario.ev[0].wlan[0].mac.dcf.channelAccess.inProgressFrames queueLength:timeavg 0.032340727563602
attr interpolationmode sample-hold
attr source "count(packetEnqueued) - count(packetDequeued)"
attr title "queue length, timeavg"
scalar ToyEVDoSScenario.ev[0].wlan[0].mac.dcf.channelAccess.contention stateChanged:count 36966
attr interpolationmode none
attr title "contention state changed, count"
scalar ToyEVDoSScenario.ev[0].wlan[0].mac.dcf.channelAccess.contention channelAccessGranted:count 4576
attr title "channel access granted, count"
scalar ToyEVDoSScenario.ev[0].wlan[0].mac.dcf.channelAccess channelOwnershipChanged:count 9152
attr interpolationmode sample-hold
attr title "channel ownership, count"
scalar ToyEVDoSScenario.ev[0].wlan[0].mac.dcf.originatorMacDataService packetAggregated:count 0
attr title "packets aggregated, count"
scalar ToyEVDoSScenario.ev[0].wlan[0].mac.dcf.originatorMacDataService packetFragmented:count 242
attr title "packets fragmented, count"
scalar ToyEVDoSScenario.ev[0].wlan[0].mac.dcf.recipientMacDataService packetDropDuplicateDetected:count 0
attr interpolationmode none
attr source packetDropReasonIsDuplicateDetected(packetDropped)
attr title "packet drops: duplicate detected, count"
scalar ToyEVDoSScenario.ev[0].wlan[0].mac.dcf.recipientMacDataService packetDropDuplicateDetected:sum(packetBytes) 0
attr interpolationmode none
attr source packetDropReasonIsDuplicateDetected(packetDropped)
[...]
attr title "packets sent: with retry, sum(packetBytes)"
scalar ToyEVDoSScenario.ev[1].wlan[0].mac.dcf packetSentToPeerWithoutRetry:count 88
attr interpolationmode none
attr source ieee80211NotRetry(packetSentToPeer)
attr title "packets sent: without retry, count"
scalar ToyEVDoSScenario.ev[1].wlan[0].mac.dcf packetSentToPeerWithoutRetry:sum(packetBytes) 30919
attr interpolationmode none
attr source ieee80211NotRetry(packetSentToPeer)
attr title "packets sent: without retry, sum(packetBytes)"
scalar ToyEVDoSScenario.ev[1].wlan[0].mac.dcf packetDrop:count 0
attr interpolationmode none
attr source packetDropped
attr title "packet drops, count"
scalar ToyEVDoSScenario.ev[1].wlan[0].mac.dcf packetDrop:sum(packetBytes) 0
attr interpolationmode none
attr source packetDropped
attr title "packet drops, sum(packetBytes)"
scalar ToyEVDoSScenario.ev[1].wlan[0].mac.dcf packetDropNotAddressedToUs:count 0
attr interpolationmode none
attr source packetDropReasonIsNotAddressedToUs(packetDropped)
attr title "packet drops: not addressed to us, count"
scalar ToyEVDoSScenario.ev[1].wlan[0].mac.dcf packetDropNotAddressedToUs:sum(packetBytes) 0
attr interpolationmode none
attr source packetDropReasonIsNotAddressedToUs(packetDropped)
attr title "packet drops: not addressed to us, sum(packetBytes)"
scalar ToyEVDoSScenario.ev[1].wlan[0].mac.dcf packetDropQueueOverflow:count 0
attr interpolationmode none
attr source packetDropReasonIsQueueOverflow(packetDropped)
attr title "packet drops: queue overflow, count"
scalar ToyEVDoSScenario.ev[1].wlan[0].mac.dcf packetDropQueueOverflow:sum(packetBytes) 0
attr interpolationmode none
attr source packetDropReasonIsQueueOverflow(packetDropped)
attr title "packet drops: queue overflow, sum(packetBytes)"
scalar ToyEVDoSScenario.ev[1].wlan[0].mac.dcf packetDropRetryLimitReached:count 0
attr interpolationmode none
attr source packetDropReasonIsRetryLimitReached(packetDropped)
attr title "packet drops: retry limit reached, count"
scalar ToyEVDoSScenario.ev[1].wlan[0].mac.dcf packetDropRetryLimitReached:sum(packetBytes) 0
attr interpolationmode none
attr source packetDropReasonIsRetryLimitReached(packetDropped)
attr title "packet drops: retry limit reached, sum(packetBytes)"
scalar ToyEVDoSScenario.ev[1].wlan[0].mac.dcf linkBroken:count 0
attr interpolationmode none
attr title "link breaks, count"
scalar ToyEVDoSScenario.ev[1].wlan[0].mac.dcf frameSequenceFinished:count 88
attr title "finished frame sequences, count"
statistic ToyEVDoSScenario.ev[1].wlan[0].mac.dcf frameSequenceDuration:histogram
field count 88
field mean 0.000146
field stddev 2.1139927902529e-005
field min 8.2e-005
field max 0.000182
field sum 0.012848
field sqrsum 1.914688e-006
attr source frameSequenceDuration(frameSequenceFinished)
attr title "frame sequence durations, histogram"
bin	-inf	0
bin	5.6e-005	0
bin	5.8e-005	0
bin	6e-005	0
bin	6.2e-005	0
bin	6.4e-005	0
bin	6.6e-005	0
bin	6.8e-005	0
bin	7e-005	0
bin	7.2e-005	0
bin	7.4e-005	0
bin	7.6e-005	0
bin	7.8e-005	0
bin	8e-005	1
bin	8.2e-005	0
bin	8.4e-005	0
bin	8.6e-005	0
bin	8.8e-005	0
bin	9e-005	0
bin	9.2e-005	0
bin	9.4e-005	0
bin	9.6e-005	0
bin	9.8e-005	0
bin	0.0001	0
bin	0.000102	0
bin	0.000104	0
bin	0.000106	0
bin	0.000108	0
bin	0.00011	0
bin	0.000112	0
bin	0.000114	0
bin	0.000116	9
bin	0.000118	0
bin	0.00012	5
bin	0.000122	0
bin	0.000124	7
bin	0.000126	0
bin	0.000128	5
bin	0.00013	0
bin	0.000132	0
bin	0.000134	4
bin	0.000136	5
bin	0.000138	0
bin	0.00014	7
bin	0.000142	0
bin	0.000144	6
bin	0.000146	0
bin	0.000148	6
bin	0.00015	0
bin	0.000152	0
bin	0.000154	4
bin	0.000156	2
bin	0.000158	0
bin	0.00016	5
bin	0.000162	0
bin	0.000164	7
bin	0.000166	0
bin	0.000168	1
bin	0.00017	0
bin	0.000172	4
bin	0.000174	0
bin	0.000176	6
bin	0.000178	0
bin	0.00018	4
bin	0.000182	0
bin	0.000184	0
bin	0.000186	0
bin	0.000188	0
bin	0.00019	0
bin	0.000192	0
bin	0.000194	0
bin	0.000196	0
bin	0.000198	0
bin	0.0002	0
bin	0.000202	0
bin	0.000204	0
bin	0.000206	0
bin	0.000208	0
statistic ToyEVDoSScenario.ev[1].wlan[0].mac.dcf frameSequenceNumPackets:histogram
field count 88
field mean 1
field stddev 0
field min 1
field max 1
field sum 88
field sqrsum 88
attr source frameSequenceNumPackets(frameSequenceFinished)
attr title "frame sequences: number of packets, histogram"
bin	-inf	0
bin	0	0
bin	1	88
bin	2	0
scalar ToyEVDoSScenario.ev[1].wlan[0].mac packetReceivedFromLower:count 4571
attr interpolationmode none
attr title "packets received from lower layer, count"
scalar ToyEVDoSScenario.ev[1].wlan[0].mac packetReceivedFromLower:sum(packetBytes) 4030781
attr interpolationmode none
attr title "packets received from lower layer, sum(packetBytes)"
scalar ToyEVDoSScenario.ev[1].wlan[0].mac packetSentToLower:count 88
attr interpolationmode none
attr title "packets sent to lower layer, count"
scalar ToyEVDoSScenario.ev[1].wlan[0].mac packetSentToLower:sum(packetBytes) 30919
attr interpolationmode none
attr title "packets sent to lower layer, sum(packetBytes)"
scalar ToyEVDoSScenario.ev[1].wlan[0].mac packetReceivedFromUpper:count 88
attr interpolationmode none
attr title "packets received from upper layer, count"
scalar ToyEVDoSScenario.ev[1].wlan[0].mac packetReceivedFromUpper:sum(packetBytes) 28455
attr interpolationmode none
attr title "packets received from upper layer, sum(packetBytes)"
scalar ToyEVDoSScenario.ev[1].wlan[0].mac packetSentToUpper:count 4329
attr interpolationmode none
attr title "packets sent to upper layer, count"
scalar ToyEVDoSScenario.ev[1].wlan[0].mac packetSentToUpper:sum(packetBytes) 3902793
attr interpolationmode none
attr title "packets sent to upper layer, sum(packetBytes)"
scalar ToyEVDoSScenario.ev[1].wlan[0].mac packetDrop:count 0
attr interpolationmode none
attr source packetDropped
attr title "packet drops, count"
scalar ToyEVDoSScenario.ev[1].wlan[0].mac packetDrop:sum(packetBytes) 0
attr interpolationmode none
attr source packetDropped
attr title "packet drops, sum(packetBytes)"
scalar ToyEVDoSScenario.ev[1].wlan[0].mac packetDropIncorrectlyReceived:count 0
attr interpolationmode none
attr source packetDropReasonIsIncorrectlyReceived(packetDropped)
attr title "packet drops: incorrectly received, count"
scalar ToyEVDoSScenario.ev[1].wlan[0].mac packetDropIncorrectlyReceived:sum(packetBytes) 0
attr interpolationmode none
attr source packetDropReasonIsIncorrectlyReceived(packetDropped)
attr title "packet drops: incorrectly received, sum(packetBytes)"
scalar ToyEVDoSScenario.ev[1].wlan[0].mac packetDropNotAddressedToUs:count 0
attr interpolationmode none
attr source packetDropReasonIsNotAddressedToUs(packetDropped)
attr title "packet drops: not addressed to us, count"
scalar ToyEVDoSScenario.ev[1].wlan[0].mac packetDropNotAddressedToUs:sum(packetBytes) 0
attr interpolationmode none
attr source packetDropReasonIsNotAddressedToUs(packetDropped)
attr title "packet drops: not addressed to us, sum(packetBytes)"
scalar ToyEVDoSScenario.ev[1].wlan[0].mac packetDropQueueOverflow:count 0
attr interpolationmode none
attr source packetDropReasonIsQueueOverflow(packetDropped)
attr title "packet drops: queue overflow, count"
scalar ToyEVDoSScenario.ev[1].wlan[0].mac packetDropQueueOverflow:sum(packetBytes) 0
attr interpolationmode none
attr source packetDropReasonIsQueueOverflow(packetDropped)
attr title "packet drops: queue overflow, sum(packetBytes)"
scalar ToyEVDoSScenario.ev[1].wlan[0].mac packetDropRetryLimitReached:count 0
attr interpolationmode none
attr source packetDropReasonIsRetryLimitReached(packetDropped)
attr title "packet drops: retry limit reached, count"
scalar ToyEVDoSScenario.ev[1].wlan[0].mac packetDropRetryLimitReached:sum(packetBytes) 0
attr interpolationmode none
attr source packetDropReasonIsRetryLimitReached(packetDropped)
attr title "packet drops: retry limit reached, sum(packetBytes)"
scalar ToyEVDoSScenario.ev[1].wlan[0].mac packetDropDuplicateDetected:count 0
attr interpolationmode none
attr source packetDropReasonIsDuplicateDetected(packetDropped)
attr title "packet drops: duplicate detected, count"
scalar ToyEVDoSScenario.ev[1].wlan[0].mac packetDropDuplicateDetected:sum(packetBytes) 0
attr interpolationmode none
attr source packetDropReasonIsDuplicateDetected(packetDropped)
attr title "packet drops: duplicate detected, sum(packetBytes)"
scalar ToyEVDoSScenario.ev[1].wlan[0].mac packetDropOther:count 0
attr interpolationmode none
attr source packetDropReasonIsOther(packetDropped)
attr title "packet drops: other, count"
scalar ToyEVDoSScenario.ev[1].wlan[0].mac packetDropOther:sum(packetBytes) 0
attr interpolationmode none
attr source packetDropReasonIsOther(packetDropped)
attr title "packet drops: other, sum(packetBytes)"
scalar ToyEVDoSScenario.ev[1].wlan[0].mac linkBroken:count 0
attr interpolationmode none
attr title "link breaks, count"
statistic ToyEVDoSScenario.ev[1].wlan[0].radio minSnir:histogram
field count 4571
field mean 8013.3933376437
field stddev 6095.6398953568
field min 720.69669540746
field max 30645.05812888
field sum 36629220.946369
field sqrsum 463331048698.48
attr source minimumSnir(packetSentToUpper)
attr title "Min SNIR, histogram"
bin	-inf	0
bin	500	435
bin	1000	267
bin	1500	152
bin	2000	109
bin	2500	77
bin	3000	64
bin	3500	44
bin	4000	47
bin	4500	31
bin	5000	32
bin	5500	21
bin	6000	625
bin	6500	864
bin	7000	249
bin	7500	128
bin	8000	108
bin	8500	102
bin	9000	88
bin	9500	65
bin	10000	73
bin	10500	41
bin	11000	53
bin	11500	41
bin	12000	46
bin	12500	36
bin	13000	31
bin	13500	34
bin	14000	35
bin	14500	22
bin	15000	33
bin	15500	41
bin	16000	0
bin	16500	48
bin	17000	20
bin	17500	22
bin	18000	43
bin	18500	0
bin	19000	47
bin	19500	20
bin	20000	23
bin	20500	34
bin	21000	21
bin	21500	49
bin	22000	35
bin	22500	33
bin	23000	53
bin	23500	40
bin	24000	20
bin	24500	23
bin	25000	45
bin	25500	0
bin	26000	0
bin	26500	0
bin	27000	0
bin	27500	0
bin	28000	0
bin	28500	0
bin	29000	0
bin	29500	0
bin	30000	0
bin	30500	1
bin	31000	0
bin	31500	0
bin	32000	0
bin	32500	0
bin	33000	0
bin	33500	0
bin	34000	0
bin	34500	0
bin	35000	0
bin	35500	0
bin	36000	0
bin	36500	0
bin	37000	0
statistic ToyEVDoSScenario.ev[1].wlan[0].radio packetErrorRate:histogram
field count 4571
field mean 0
field stddev 0
field min 0
field max 0
field sum 0
field sqrsum 0
attr source packetErrorRate(packetSentToUpper)
attr title "Packet error rate, histogram"
bin	-inf	0
bin	-0.5	0
bin	-0.48	0
bin	-0.46	0
bin	-0.44	0
bin	-0.42	0
bin	-0.4	0
bin	-0.38	0
bin	-0.36	0
bin	-0.34	0
bin	-0.32	0
bin	-0.3	0
bin	-0.28	0
bin	-0.26	0
bin	-0.24	0
bin	-0.22	0
bin	-0.2	0
bin	-0.18	0
bin	-0.16	0
bin	-0.14	0
bin	-0.12	0
bin	-0.1	0
bin	-0.08	0
bin	-0.06	0
bin	-0.04	0
bin	-0.02	0
bin	0	4571
bin	0.02	0
bin	0.04	0
bin	0.06	0
bin	0.08	0
bin	0.1	0
bin	0.12	0
bin	0.14	0
bin	0.16	0
bin	0.18	0
bin	0.2	0
bin	0.22	0
bin	0.24	0
bin	0.26	0
bin	0.28	0
bin	0.3	0
bin	0.32	0
bin	0.34	0
bin	0.36	0
bin	0.38	0
bin	0.4	0
bin	0.42	0
bin	0.44	0
bin	0.46	0
bin	0.48	0
bin	0.5	0
statistic ToyEVDoSScenario.ev[1].wlan[0].radio bitErrorRate:histogram
field count 0
field mean nan
field stddev nan
field min nan
field max nan
field sum 0
field sqrsum 0
attr source bitErrorRate(packetSentToUpper)
attr title "Bit error rate, histogram"
bin	-inf	0
bin	0	0
bin	1	0
statistic ToyEVDoSScenario.ev[1].wlan[0].radio symbolErrorRate:histogram
field count 0
field mean nan
field stddev nan
field min nan
field max nan
field sum 0
field sqrsum 0
attr source symbolErrorRate(packetSentToUpper)
attr title "Symbol error rate, histogram"
bin	-inf	0
bin	0	0
bin	1	0
scalar ToyEVDoSScenario.ev[1].wlan[0].radio transmissionState:count 352
attr interpolationmode sample-hold
attr source transmissionStateChanged
attr title "Radio transmission state, count"
scalar ToyEVDoSScenario.ev[1].wlan[0].radio receptionState:count 9319
attr interpolationmode sample-hold
attr source receptionStateChanged
attr title "Radio reception state, count"
scalar ToyEVDoSScenario.ev[1].wlan[0].radio radioMode:count 179
attr interpolationmode sample-hold
attr source radioModeChanged
attr title "Radio mode, count"
statistic ToyEVDoSScenario.ev[1].wlan[0].radio radioChannel:histogram
field count 1
field mean 3
field stddev nan
field min 3
field max 3
field sum 3
field sqrsum 9
attr interpolationmode sample-hold
attr source radioChannelChanged
attr title "Radio channel, histogram"
bin	-inf	0
bin	2	0
bin	3	1
bin	4	0
scalar ToyEVDoSScenario.ev[1].ipv4.ip packetDropAddressResolutionFailed:count 0
attr interpolationmode none
attr source packetDropReasonIsAddressResolutionFailed(packetDropped)
attr title "packet drop: address resolution failed, count"
scalar ToyEVDoSScenario.ev[1].ipv4.ip packetDropAddressResolutionFailed:sum(packetBytes) 0
attr interpolationmode none
attr source packetDropReasonIsAddressResolutionFailed(packetDropped)
attr title "packet drop: address resolution failed, sum(packetBytes)"
scalar ToyEVDoSScenario.ev[1].ipv4.ip packetDropHopLimitReached:count 0
attr interpolationmode none
attr source packetDropReasonIsHopLimitReached(packetDropped)
attr title "packet drop: hop limit reached, count"
scalar ToyEVDoSScenario.ev[1].ipv4.ip packetDropHopLimitReached:sum(packetBytes) 0
attr interpolationmode none
attr source packetDropReasonIsHopLimitReached(packetDropped)
attr title "packet drop: hop limit reached, sum(packetBytes)"
scalar ToyEVDoSScenario.ev[1].ipv4.ip packetDropForwardingDisabled:count 0
attr interpolationmode none
attr source packetDropReasonIsForwardingDisabled(packetDropped)
attr title "packet drop: forwarding disabled, count"
scalar ToyEVDoSScenario.ev[1].ipv4.ip packetDropForwardingDisabled:sum(packetBytes) 0
attr interpolationmode none
attr source packetDropReasonIsForwardingDisabled(packetDropped)
attr title "packet drop: forwarding disabled, sum(packetBytes)"
scalar ToyEVDoSScenario.ev[1].ipv4.ip packetDropNoInterfaceFound:count 0
attr interpolationmode none
attr source packetDropReasonIsNoInterfaceFound(packetDropped)
attr title "packet drop: no interface found, count"
scalar ToyEVDoSScenario.ev[1].ipv4.ip packetDropNoInterfaceFound:sum(packetBytes) 0
attr interpolationmode none
attr source packetDropReasonIsNoInterfaceFound(packetDropped)
attr title "packet drop: no interface found, sum(packetBytes)"
scalar ToyEVDoSScenario.ev[1].ipv4.ip packetDropNoRouteFound:count 0
attr interpolationmode none
attr source packetDropReasonIsNoRouteFound(packetDropped)
attr title "packet drop: no route found, count"
scalar ToyEVDoSScenario.ev[1].ipv4.ip packetDropNoRouteFound:sum(packetBytes) 0
attr interpolationmode none
attr source packetDropReasonIsNoRouteFound(packetDropped)
attr title "packet drop: no route found, sum(packetBytes)"
scalar ToyEVDoSScenario.ev[1].ipv4.ip packetDropUndefined:count 0
attr interpolationmode none
attr source packetDropReasonIsUndefined(packetDropped)
attr title "packet drop: undefined, count"
scalar ToyEVDoSScenario.ev[1].ipv4.ip packetDropUndefined:sum(packetBytes) 0
attr interpolationmode none
attr source packetDropReasonIsUndefined(packetDropped)
attr title "packet drop: undefined, sum(packetBytes)"
scalar ToyEVDoSScenario.ev[1].ipv4.arp arpReplySent:count 0
attr source arpReplySent
attr title "ARP replies sent, count"
scalar ToyEVDoSScenario.ev[1].ipv4.arp arpReplySent:sum(packetBytes) 0
attr source arpReplySent
attr title "ARP replies sent, sum(packetBytes)"
scalar ToyEVDoSScenario.ev[1].ipv4.arp arpRequestSent:count 0
attr source arpRequestSent
attr title "ARP request sent, count"
scalar ToyEVDoSScenario.ev[1].ipv4.arp arpRequestSent:sum(packetBytes) 0
attr source arpRequestSent
attr title "ARP request sent, sum(packetBytes)"
scalar ToyEVDoSScenario.ev[1].ipv4.arp arpResolutionFailed:count 0
attr title "ARP failed resolutions, count"
scalar ToyEVDoSScenario.ev[1].ipv4.arp arpResolutionCompleted:count 0
attr title "ARP completed resolutions, count"
scalar ToyEVDoSScenario.ev[1].ipv4.arp arpResolutionInitiated:count 0
attr title "ARP initiated resolutions, count"
scalar ToyEVDoSScenario.ev[1].udp packetReceived:count 4416
attr interpolationmode none
attr source packetReceived
attr title "packets received, count"
scalar ToyEVDoSScenario.ev[1].udp packetReceived:sum(packetBytes) 3806729
attr interpolationmode none
attr source packetReceived
attr title "packets received, sum(packetBytes)"
scalar ToyEVDoSScenario.ev[1].udp packetSent:count 88
attr interpolationmode none
attr source packetSent
attr title "packets sent, count"
scalar ToyEVDoSScenario.ev[1].udp packetSent:sum(packetBytes) 25991
attr interpolationmode none
attr source packetSent
attr title "packets sent, sum(packetBytes)"
scalar ToyEVDoSScenario.ev[1].udp passedUpPk:count 4416
attr interpolationmode none
attr source packetSentToUpper
attr title "packets passed up, count"
scalar ToyEVDoSScenario.ev[1].udp droppedPkWrongPort:count 0
attr interpolationmode none
attr source packetDropReasonIsNoPortFound(packetDropped)
attr title "packets dropped (wrong port), count"
scalar ToyEVDoSScenario.ev[1].udp droppedPkBadChecksum:count 0
attr interpolationmode none
attr source packetDropReasonIsIncorrectlyReceived(packetDropped)
attr title "packets dropped (checksum error), count"
scalar ToyEVDoSScenario.ev[1].app[0] packetsSent 88
scalar ToyEVDoSScenario.ev[1].app[0] packetsReceived 80
scalar ToyEVDoSScenario.ev[1].app[0] totalEnergyConsumed 40.284004480056
scalar ToyEVDoSScenario.ev[1].app[0] finalBatteryWh 47.715995519944
scalar ToyEVDoSScenario.ev[1].app[0] finalSoC 0.23857997759972
scalar ToyEVDoSScenario.ev[1].app[0] totalBytesSent 25287
scalar ToyEVDoSScenario.ev[1].app[0] totalBytesReceived 23734
scalar ToyEVDoSScenario.ev[1].app[0] packetSendRate 1.531227261431
scalar ToyEVDoSScenario.ev[1].app[0] packetRecvRate 1.3920247831191
scalar ToyEVDoSScenario.ev[1].app[0] attackDurationParam 60
scalar ToyEVDoSScenario.ev[1].app[0] isAttackerParam 0
statistic ToyEVDoSScenario.ev[1].app[0] senderSpeed:stats
field count 80
field mean 8.8279846852323
field stddev 5.7537751305183
field min 0
field max 13.888327960956
field sum 706.23877481858
field sqrsum 8850.0334201688
statistic ToyEVDoSScenario.ev[1].app[0] soc:stats
field count 214
field mean 0.20145171131068
field stddev 0.055635644470835
field min 0.10889778024202
field max 0.29999999999252
field sum 43.110666220485
field sqrsum 9.3440216971612
attr title "State of Charge, stats"
statistic ToyEVDoSScenario.ev[1].app[0] batteryLevel:stats
field count 214
field mean 40.290342262136
field stddev 11.127128894167
field min 21.779556048405
field max 59.999999998504
field sum 8622.1332440971
field sqrsum 373760.86788645
statistic ToyEVDoSScenario.ev[1].app[0] txDuration:stats
field count 80
field mean 0.00039556666666667
field stddev 8.6207749593723e-005
field min 0.00013333333333333
field max 0.000532
field sum 0.031645333333333
field sqrsum 1.3104949333333e-005
statistic ToyEVDoSScenario.ev[1].app[0] energyConsumption:stats
field count 167
field mean 6.1149457836744e-009
field stddev 5.1820485852291e-009
field min 3.1730499449703e-010
field max 1.7410569230991e-008
field sum 1.0211959458736e-006
field sqrsum 1.0702260015111e-014
statistic ToyEVDoSScenario.ev[1].app[0] interArrivalTime:stats
field count 167
field mean 0.68298830715372
field stddev 1.1763035291555
field min 0.052797489978
field max 11.499579281919
field sum 114.05904729467
field sqrsum 307.59353441617
statistic ToyEVDoSScenario.ev[1].app[0] packetSize:stats
field count 167
field mean 292.94011976048
field stddev 62.331768824612
field min 100
field max 400
field sum 48921
field sqrsum 14975875
scalar ToyEVDoSScenario.ev[1].app[0] packetReceived:count 80
attr interpolationmode none
attr source packetReceived
attr title "packets received, count"
scalar ToyEVDoSScenario.ev[1].app[0] packetReceived:sum 80
attr interpolationmode none
attr source packetReceived
attr title "packets received, sum"
scalar ToyEVDoSScenario.ev[1].app[0] packetSent:count 87
attr interpolationmode none
attr source packetSent
attr title "packets sent, count"
scalar ToyEVDoSScenario.ev[1].app[0] packetSent:sum 3881
attr interpolationmode none
attr source packetSent
attr title "packets sent, sum"

