version 2
run Toy_Synchronized-0-20260331-15:06:14-2292
attr configname Toy_Synchronized
attr datetime 20260331-15:06:14
attr experiment Toy_Synchronized
attr inifile omnetpp.ini
attr iterationvars ""
attr iterationvarsf ""
attr measurement ""
attr network ToyEVDoSScenario
attr processid 2292
attr repetition 0
attr replication #0
attr resultdir results
attr runnumber 0
attr seedset 0
param *.cs[*].app[0].maxPktPerSecond 5
param *.rsu[*].app[0].maxPktPerSecond 500
param *.cs[*].wlan[0].mac.queue.packetCapacity 10
param *.cs[*].wlan[0].mac.queue.typename "\"DropTailQueue\""
param *.ev[*].app[0].energyPerMeter 0.1Wh
param *.ev[*].app[0].batteryCapacity 200Wh
param *.ev[0].app[0].isAttacker true
param *.ev[0].app[0].targetType "\"CS\""
param *.ev[0].app[0].targetAddress "\"cs[0]\""
param *.ev[0].app[0].attackStartTime 10s
param *.ev[0].app[0].attackDuration 60s
param *.ev[0].app[0].packetInterval 0.01s
param *.ev[0].app[0].packetSize 1024B
param *.ev[0].app[0].initialSoC 0.80
param *.ev[0].app[0].sumoColor "\"red\""
param *.ev[0].app[0].chargingRange 300m
param *.ev[0].app[0].physicalChargingRange 50m
param *.ev[0].app[0].csEdgeId "\"B1B2\""
param *.ev[1].app[0].isAttacker false
param *.ev[1].app[0].initialSoC 0.30
param *.ev[1].app[0].packetInterval 1s
param *.ev[1].app[0].chargingRange 300m
param *.ev[1].app[0].physicalChargingRange 50m
param *.ev[1].app[0].csEdgeId "\"B1B2\""
param *.ev[1].app[0].sumoColor "\"yellow\""
param *.radioMedium.neighborCache.typename "\"GridNeighborCache\""
param *.radioMedium.neighborCache.cellSizeX 300m
param *.radioMedium.neighborCache.cellSizeY 300m
param *.radioMedium.neighborCache.cellSizeZ 100m
param *.radioMedium.pathLoss.typename "\"FreeSpacePathLoss\""
param *.veinsManager.firstStepAt 0s
param *.veinsManager.roiRects "\"\""
param *.veinsManager.moduleType "\"evattack.veins_inet.VeinsInetEVChargingCar\""
param *.veinsManager.moduleName "\"ev\""
param *.ev[*].numApps 1
param *.ev[*].app[0].typename "\"VeinsInetEVChargingApp\""
param *.ev[*].app[0].interface "\"wlan0\""
param *.ev[*].app[0].interfaceTableModule "\"^.interfaceTable\""
param *.ev[*].mobility.typename "\"VeinsInetMobility\""
param *.ev[*].ipv4.configurator.typename "\"HostAutoConfigurator\""
param *.ev[*].ipv4.configurator.interfaces "\"wlan0\""
param *.ev[*].wlan[0].typename "\"Ieee80211Interface\""
param *.ev[*].wlan[0].radio.typename "\"Ieee80211ScalarRadio\""
param *.ev[*].wlan[0].radio.bandName "\"5.9 GHz\""
param *.ev[*].wlan[0].radio.channelNumber 3
param *.ev[*].wlan[0].radio.transmitter.power 20mW
param *.ev[*].wlan[0].radio.receiver.sensitivity -89dBm
param *.ev[*].wlan[0].radio.receiver.snirThreshold 4dB
param *.ev[*].wlan[0].mgmt.typename "\"Ieee80211MgmtAdhoc\""
param *.ev[*].wlan[0].mac.dcf.channelAccess.cwMin 15
param *.ev[*].wlan[0].mac.dcf.channelAccess.cwMax 1023
param *.ev[*].wlan[0].radio.displayCommunicationRange true
param *.ev[*].app[0].batteryCapacity 200Wh
param *.ev[*].app[0].initialSoC 0.8
param *.ev[*].app[0].energyPerMeter 0.05Wh
param *.ev[*].app[0].chargingPowerW 7200W
param *.ev[*].app[0].socThreshold 0.2
param *.ev[*].app[0].chargingRange 300m
param *.ev[*].app[0].physicalChargingRange 15m
param *.ev[*].app[0].csEdgeId "\"B1B2\""
param *.ev[*].app[0].destinations "\"\""
param *.ev[*].app[0].isAttacker false
param *.ev[*].app[0].maxPktPerSecond 0
param *.cs[*].app[0].maxPktPerSecond 0
param *.rsu[*].app[0].maxPktPerSecond 0
param *.ev[*].app[0].sumoColor "\"yellow\""
param *.cs[*].numApps 1
param *.cs[*].app[0].typename "\"VeinsInetCSChargingApp\""
param *.cs[*].app[0].interfaceTableModule "\"^.interfaceTable\""
param *.cs[*].app[0].maxSlots 1
param *.cs[*].app[0].csBatteryCapacity 50000Wh
param *.cs[*].app[0].initialCSSoC 1.0
param *.cs[*].app[0].chargingPowerW 7200W
param *.cs[*].app[0].gridRechargePowerW 10000W
param *.cs[*].ipv4.configurator.typename "\"HostAutoConfigurator\""
param *.cs[*].ipv4.configurator.interfaces "\"wlan0\""
param *.cs[*].mobility.initFromDisplayString false
param *.cs[*].numWlanInterfaces 1
param *.cs[*].wlan[0].typename "\"Ieee80211Interface\""
param *.cs[*].wlan[0].radio.typename "\"Ieee80211ScalarRadio\""
param *.cs[*].wlan[0].radio.bandName "\"5.9 GHz\""
param *.cs[*].wlan[0].radio.channelNumber 3
param *.cs[*].wlan[0].radio.transmitter.power 20mW
param *.cs[*].wlan[0].radio.receiver.sensitivity -89dBm
param *.cs[*].wlan[0].mgmt.typename "\"Ieee80211MgmtAdhoc\""
param *.cs[*].wlan[0].mac.dcf.channelAccess.cwMin 15
param *.cs[*].wlan[0].mac.dcf.channelAccess.cwMax 1023
param *.cs[*].wlan[0].radio.displayCommunicationRange true
param *.rsu[*].numApps 1
param *.rsu[*].app[0].typename "\"VeinsInetReceiverApp\""
param *.rsu[*].ipv4.configurator.typename "\"HostAutoConfigurator\""
param *.rsu[*].ipv4.configurator.interfaces "\"wlan0\""
param *.rsu[*].mobility.initFromDisplayString false
param *.rsu[*].numWlanInterfaces 1
param *.rsu[*].wlan[0].typename "\"Ieee80211Interface\""
param *.rsu[*].wlan[0].radio.typename "\"Ieee80211ScalarRadio\""
param *.rsu[*].wlan[0].radio.bandName "\"5.9 GHz\""
param *.rsu[*].wlan[0].radio.channelNumber 3
param *.rsu[*].wlan[0].radio.transmitter.power 200mW
param *.rsu[*].wlan[0].radio.receiver.sensitivity -89dBm
param *.rsu[*].wlan[0].mgmt.typename "\"Ieee80211MgmtAdhoc\""
param *.rsu[*].wlan[0].mac.dcf.channelAccess.cwMin 15
param *.rsu[*].wlan[0].mac.dcf.channelAccess.cwMax 1023
param *.rsu[*].wlan[0].radio.displayCommunicationRange true
param **.constraintAreaMinX -10m
param **.constraintAreaMinY -10m
param **.constraintAreaMinZ 0m
param **.constraintAreaMaxX 500m
param **.constraintAreaMaxY 500m
param **.constraintAreaMaxZ 100m
param *.veinsManager.launchConfig "xmldoc(\"toy.launchd.xml\")"
param *.ev[*].app[0].destinations "\"C2C1 A2B2 C0B0 A0B0\""
param *.cs[0].mobility.typename "\"StationaryMobility\""
param *.cs[0].mobility.initialX 200m
param *.cs[0].mobility.initialY 200m
param *.cs[0].mobility.initialZ 0m
param *.rsu[0].mobility.typename "\"StationaryMobility\""
param *.rsu[0].mobility.initialX 200m
param *.rsu[0].mobility.initialY 300m
param *.rsu[0].mobility.initialZ 10m
param *.visualizer.typename "\"IntegratedCanvasVisualizer\""
param *.visualizer.*.displayDefaults false
param *.veinsManager.seed 0
param **.constraintAreaMinX 0m
param **.constraintAreaMinY 0m
param **.constraintAreaMinZ 0m
param **.constraintAreaMaxX 13640m
param **.constraintAreaMaxY 11500m
param **.constraintAreaMaxZ 50m
param *.visualizer.*.mobilityVisualizer.displayMobility false
param *.visualizer.*.mobilityVisualizer.displayPositions false
param *.visualizer.*.mediumVisualizer.displaySignals false
param *.visualizer.*.mediumVisualizer.displayTransmissions false
param *.visualizer.*.mediumVisualizer.displayReceptions false
param *.visualizer.*.dataLinkVisualizer.displayLinks false
param *.visualizer.*.networkRouteVisualizer.displayRoutes false
param *.visualizer.*.interfaceTableVisualizer.displayInterfaceTables false
param *.visualizer.*.packetDropVisualizer.displayPacketDrops false
param *.veinsManager.updateInterval 0.1s
param *.veinsManager.host "\"localhost\""
param *.veinsManager.port 9999
param *.veinsManager.autoShutdown true
param *.veinsManager.launchConfig "xmldoc(\"luxembourg.launchd.xml\")"
param *.veinsManager.moduleType "\"evattack.veins_inet.VeinsInetEVCar\""
param *.veinsManager.moduleName "\"ev\""
param *.veinsManager.roiRects "\"2300,5400-6300,6300\""
param *.veinsManager.firstStepAt 7h
param *.configurator.config "xmldoc(\"config.xml\")"
param *.configurator.addStaticRoutes false
param *.configurator.addDefaultRoutes false
param *.configurator.addSubnetRoutes false
param *.configurator.addDirectRoutes false
param *.configurator.optimizeRoutes false
param *.radioMedium.mediumLimitCache.carrierFrequency 5.9GHz
param *.radioMedium.pathLoss.typename "\"TwoRayInterference\""
param *.radioMedium.mediumLimitCache.maxCommunicationRange 500m
param *.radioMedium.mediumLimitCache.maxInterferenceRange 750m
param *.ev[*].numApps 1
param *.ev[*].app[0].typename "\"VeinsInetEVDoSApplication\""
param *.ev[*].app[0].interfaceTableModule "\"^.interfaceTable\""
param *.ev[*].app[0].interface "\"wlan0\""
param *.ev[*].mobility.typename "\"VeinsInetMobility\""
param *.ev[*].ipv4.configurator.typename "\"HostAutoConfigurator\""
param *.ev[*].ipv4.configurator.interfaces "\"wlan0\""
param *.ev[*].wlan[0].typename "\"Ieee80211Interface\""
param *.ev[*].wlan[0].radio.typename "\"Ieee80211ScalarRadio\""
param *.ev[*].wlan[0].radio.bandName "\"5.9 GHz\""
param *.ev[*].wlan[0].radio.channelNumber 3
param *.ev[*].wlan[0].radio.transmitter.power 20mW
param *.ev[*].wlan[0].radio.receiver.sensitivity -89dBm
param *.ev[*].wlan[0].radio.receiver.snirThreshold 4dB
param *.ev[*].wlan[0].mgmt.typename "\"Ieee80211MgmtAdhoc\""
param *.ev[*].wlan[0].mac.dcf.channelAccess.cwMin 15
param *.ev[*].wlan[0].mac.dcf.channelAccess.cwMax 1023
param *.ev[*].wlan[0].radio.displayCommunicationRange false
param *.ev[*].app[0].isAttacker false
param *.cs[*].numApps 1
param *.cs[*].app[0].typename "\"VeinsInetReceiverApp\""
param *.cs[*].ipv4.configurator.typename "\"HostAutoConfigurator\""
param *.cs[*].ipv4.configurator.interfaces "\"wlan0\""
param *.cs[*].mobility.initFromDisplayString false
param *.cs[0].mobility.typename "\"StationaryMobility\""
param *.cs[0].mobility.initialX 3200m
param *.cs[0].mobility.initialY 5700m
param *.cs[0].mobility.initialZ 0m
param *.cs[1].mobility.typename "\"StationaryMobility\""
param *.cs[1].mobility.initialX 4500m
param *.cs[1].mobility.initialY 5900m
param *.cs[1].mobility.initialZ 0m
param *.cs[2].mobility.typename "\"StationaryMobility\""
param *.cs[2].mobility.initialX 5800m
param *.cs[2].mobility.initialY 5600m
param *.cs[2].mobility.initialZ 0m
param *.cs[*].numWlanInterfaces 1
param *.cs[*].wlan[0].typename "\"Ieee80211Interface\""
param *.cs[*].wlan[0].radio.typename "\"Ieee80211ScalarRadio\""
param *.cs[*].wlan[0].radio.bandName "\"5.9 GHz\""
param *.cs[*].wlan[0].radio.channelNumber 3
param *.cs[*].wlan[0].radio.transmitter.power 20mW
param *.cs[*].wlan[0].radio.receiver.sensitivity -89dBm
param *.cs[*].wlan[0].mgmt.typename "\"Ieee80211MgmtAdhoc\""
param *.cs[*].wlan[0].mac.dcf.channelAccess.cwMin 15
param *.cs[*].wlan[0].mac.dcf.channelAccess.cwMax 1023
param *.cs[*].wlan[0].radio.displayCommunicationRange false
param *.rsu[*].numApps 1
param *.rsu[*].app[0].typename "\"VeinsInetReceiverApp\""
param *.rsu[*].ipv4.configurator.typename "\"HostAutoConfigurator\""
param *.rsu[*].ipv4.configurator.interfaces "\"wlan0\""
param *.rsu[*].mobility.initFromDisplayString false
param *.rsu[0].mobility.typename "\"StationaryMobility\""
param *.rsu[0].mobility.initialX 2800m
param *.rsu[0].mobility.initialY 5500m
param *.rsu[0].mobility.initialZ 10m
param *.rsu[1].mobility.typename "\"StationaryMobility\""
param *.rsu[1].mobility.initialX 3800m
param *.rsu[1].mobility.initialY 5800m
param *.rsu[1].mobility.initialZ 10m
param *.rsu[2].mobility.typename "\"StationaryMobility\""
param *.rsu[2].mobility.initialX 4800m
param *.rsu[2].mobility.initialY 6000m
param *.rsu[2].mobility.initialZ 10m
param *.rsu[3].mobility.typename "\"StationaryMobility\""
param *.rsu[3].mobility.initialX 5500m
param *.rsu[3].mobility.initialY 5800m
param *.rsu[3].mobility.initialZ 10m
param *.rsu[4].mobility.typename "\"StationaryMobility\""
param *.rsu[4].mobility.initialX 6000m
param *.rsu[4].mobility.initialY 6100m
param *.rsu[4].mobility.initialZ 10m
param *.rsu[*].numWlanInterfaces 1
param *.rsu[*].wlan[0].typename "\"Ieee80211Interface\""
param *.rsu[*].wlan[0].radio.typename "\"Ieee80211ScalarRadio\""
param *.rsu[*].wlan[0].radio.bandName "\"5.9 GHz\""
param *.rsu[*].wlan[0].radio.channelNumber 3
param *.rsu[*].wlan[0].radio.transmitter.power 200mW
param *.rsu[*].wlan[0].radio.receiver.sensitivity -89dBm
param *.rsu[*].wlan[0].mgmt.typename "\"Ieee80211MgmtAdhoc\""
param *.rsu[*].wlan[0].mac.dcf.channelAccess.cwMin 15
param *.rsu[*].wlan[0].mac.dcf.channelAccess.cwMax 1023
param *.rsu[*].wlan[0].radio.displayCommunicationRange false

scalar ToyEVDoSScenario.ev[0].lo[0].lo rcvdPkFromHl:count 733
attr interpolationmode none
attr source packetReceivedFromUpper
attr title "packets received from higher layer, count"
scalar ToyEVDoSScenario.ev[0].lo[0].lo rcvdPkFromHl:sum(packetBytes) 635028
attr interpolationmode none
attr source packetReceivedFromUpper
attr title "packets received from higher layer, sum(packetBytes)"
scalar ToyEVDoSScenario.ev[0].lo[0].lo passedUpPk:count 733
attr interpolationmode none
attr source packetSentToUpper
attr title "packets passed to higher layer, count"
scalar ToyEVDoSScenario.ev[0].lo[0].lo passedUpPk:sum(packetBytes) 635028
attr interpolationmode none
attr source packetSentToUpper
attr title "packets passed to higher layer, sum(packetBytes)"
scalar ToyEVDoSScenario.ev[0].wlan[0].mac.dcf.channelAccess.pendingQueue packetPopped:count 733
attr interpolationmode none
attr title "packet popped, count"
scalar ToyEVDoSScenario.ev[0].wlan[0].mac.dcf.channelAccess.pendingQueue packetPopped:sum(packetBytes) 661416
attr interpolationmode none
attr title "packet popped, sum(packetBytes)"
statistic ToyEVDoSScenario.ev[0].wlan[0].mac.dcf.channelAccess.pendingQueue queueingTime:histogram
field count 733
field mean 2.4184306821282e-007
field stddev 6.1597126911461e-006
field min 0
field max 0.000166429963
field sum 0.000177270969
field sqrsum 2.7816459995273e-008
attr interpolationmode none
attr source queueingTime(packetPopped)
attr title "queueing times, histogram"
attr unit s
bin	-inf	0
bin	-0.5	0
bin	-0.48	0
bin	-0.46	0
bin	-0.44	0
bin	-0.42	0
bin	-0.4	0
bin	-0.38	0
bin	-0.36	0
bin	-0.34	0
bin	-0.32	0
bin	-0.3	0
bin	-0.28	0
bin	-0.26	0
bin	-0.24	0
bin	-0.22	0
bin	-0.2	0
bin	-0.18	0
bin	-0.16	0
bin	-0.14	0
bin	-0.12	0
bin	-0.1	0
bin	-0.08	0
bin	-0.06	0
bin	-0.04	0
bin	-0.02	0
bin	0	733
bin	0.02	0
bin	0.04	0
bin	0.06	0
bin	0.08	0
bin	0.1	0
bin	0.12	0
bin	0.14	0
bin	0.16	0
bin	0.18	0
bin	0.2	0
bin	0.22	0
bin	0.24	0
bin	0.26	0
bin	0.28	0
bin	0.3	0
bin	0.32	0
bin	0.34	0
bin	0.36	0
bin	0.38	0
bin	0.4	0
bin	0.42	0
bin	0.44	0
bin	0.46	0
bin	0.48	0
bin	0.5	0
scalar ToyEVDoSScenario.ev[0].wlan[0].mac.dcf.channelAccess.pendingQueue queueLength:max 1
attr interpolationmode sample-hold
attr source "count(packetPushed) - count(packetPopped) - count(packetRemoved) - count(packetDropped)"
attr title "queue length, max"
scalar ToyEVDoSScenario.ev[0].wlan[0].mac.dcf.channelAccess.pendingQueue queueLength:timeavg 1.1131200340862e-005
attr interpolationmode sample-hold
attr source "count(packetPushed) - count(packetPopped) - count(packetRemoved) - count(packetDropped)"
attr title "queue length, timeavg"
scalar ToyEVDoSScenario.ev[0].wlan[0].mac.dcf.channelAccess.pendingQueue packetPushed:count 733
attr interpolationmode none
attr title "packet pushed, count"
scalar ToyEVDoSScenario.ev[0].wlan[0].mac.dcf.channelAccess.pendingQueue packetPushed:sum(packetBytes) 661416
attr interpolationmode none
attr title "packet pushed, sum(packetBytes)"
scalar ToyEVDoSScenario.ev[0].wlan[0].mac.dcf.channelAccess.pendingQueue packetDropQueueOverflow:count 0
attr interpolationmode none
attr source packetDropReasonIsQueueOverflow(packetDropped)
attr title "packet drops: queue overflow, count"
scalar ToyEVDoSScenario.ev[0].wlan[0].mac.dcf.channelAccess.pendingQueue packetDropQueueOverflow:sum(packetBytes) 0
attr interpolationmode none
attr source packetDropReasonIsQueueOverflow(packetDropped)
attr title "packet drops: queue overflow, sum(packetBytes)"
scalar ToyEVDoSScenario.ev[0].wlan[0].mac.dcf.channelAccess.pendingQueue packetRemoved:count 0
attr interpolationmode none
attr title "packets removed, count"
scalar ToyEVDoSScenario.ev[0].wlan[0].mac.dcf.channelAccess.pendingQueue packetRemoved:sum(packetBytes) 0
attr interpolationmode none
attr title "packets removed, sum(packetBytes)"
statistic ToyEVDoSScenario.ev[0].wlan[0].mac.dcf.channelAccess.inProgressFrames queueingTime:histogram
field count 773
field mean 0.00035267529107374
field stddev 0.00016529660692747
field min 0.000118
field max 0.000922
field sum 0.272618
field sqrsum 0.000117238964
attr interpolationmode none
attr source queueingTime(packetDequeued)
attr title "queueing times, histogram"
bin	-inf	0
bin	0	0
bin	2e-005	0
bin	4e-005	0
bin	6e-005	0
bin	8e-005	0
bin	0.0001	12
bin	0.00012	44
bin	0.00014	54
bin	0.00016	55
bin	0.00018	14
bin	0.0002	5
bin	0.00022	32
bin	0.00024	41
bin	0.00026	37
bin	0.00028	43
bin	0.0003	30
bin	0.00032	37
bin	0.00034	17
bin	0.00036	0
bin	0.00038	31
bin	0.0004	37
bin	0.00042	47
bin	0.00044	34
bin	0.00046	30
bin	0.00048	36
bin	0.0005	38
bin	0.00052	59
bin	0.00054	0
bin	0.00056	0
bin	0.00058	0
bin	0.0006	0
bin	0.00062	1
bin	0.00064	3
bin	0.00066	2
bin	0.00068	2
bin	0.0007	4
bin	0.00072	1
bin	0.00074	3
bin	0.00076	1
bin	0.00078	4
bin	0.0008	3
bin	0.00082	5
bin	0.00084	3
bin	0.00086	3
bin	0.00088	1
bin	0.0009	2
bin	0.00092	2
bin	0.00094	0
bin	0.00096	0
bin	0.00098	0
bin	0.001	0
bin	0.00102	0
bin	0.00104	0
bin	0.00106	0
scalar ToyEVDoSScenario.ev[0].wlan[0].mac.dcf.channelAccess.inProgressFrames queueLength:max 2
attr interpolationmode sample-hold
attr source "count(packetEnqueued) - count(packetDequeued)"
attr title "queue length, max"
scalar ToyEVDoSScenario.ev[0].wlan[0].mac.dcf.channelAccess.inProgressFrames queueLength:timeavg 0.017118232001795
attr interpolationmode sample-hold
attr source "count(packetEnqueued) - count(packetDequeued)"
attr title "queue length, timeavg"
scalar ToyEVDoSScenario.ev[0].wlan[0].mac.dcf.channelAccess.contention stateChanged:count 6274
attr interpolationmode none
attr title "contention state changed, count"
scalar ToyEVDoSScenario.ev[0].wlan[0].mac.dcf.channelAccess.contention channelAccessGranted:count 773
attr title "channel access granted, count"
scalar ToyEVDoSScenario.ev[0].wlan[0].mac.dcf.channelAccess channelOwnershipChanged:count 1546
attr interpolationmode sample-hold
attr title "channel ownership, count"
scalar ToyEVDoSScenario.ev[0].wlan[0].mac.dcf.originatorMacDataService packetAggregated:count 0
attr title "packets aggregated, count"
scalar ToyEVDoSScenario.ev[0].wlan[0].mac.dcf.originatorMacDataService packetFragmented:count 40
attr title "packets fragmented, count"
scalar ToyEVDoSScenario.ev[0].wlan[0].mac.dcf.recipientMacDataService packetDropDuplicateDetected:count 0
attr interpolationmode none
attr source packetDropReasonIsDuplicateDetected(packetDropped)
attr title "packet drops: duplicate detected, count"
scalar ToyEVDoSScenario.ev[0].wlan[0].mac.dcf.recipientMacDataService packetDropDuplicateDetected:sum(packetBytes) 0
attr interpolationmode none
attr source packetDropReasonIsDuplicateDetected(packetDropped)
attr title "packet drops: duplicate detected, sum(packetBytes)"
scalar ToyEVDoSScenario.ev[0].wlan[0].mac.dcf.recipientMacDataService packetDeaggregated:count 0
attr title "packets deaggregated, count"
scalar ToyEVDoSScenario.ev[0].wlan[0].mac.dcf.recipientMacDataService packetDefragmented:count 22
attr title "packets defragmented, count"
scalar ToyEVDoSScenario.ev[0].wlan[0].mac.dcf.recoveryProcedure retryLimitReached:count 0
attr title "retry limit reached, count"
scalar ToyEVDoSScenario.ev[0].wlan[0].mac.dcf packetReceivedFromPeer:count 22
attr interpolationmode none
attr title "packets received, count"
scalar ToyEVDoSScenario.ev[0].wlan[0].mac.dcf packetReceivedFromPeer:sum(packetBytes) 8110
attr interpolationmode none
attr title "packets received, sum(packetBytes)"
scalar ToyEVDoSScenario.ev[0].wlan[0].mac.dcf packetReceivedFromPeerUnicast:count 0
attr interpolationmode none
attr source ieee80211Unicast(packetReceivedFromPeer)
attr title "packets received: unicast, count"
scalar ToyEVDoSScenario.ev[0].wlan[0].mac.dcf packetReceivedFromPeerUnicast:sum(packetBytes) 0
attr interpolationmode none
attr source ieee80211Unicast(packetReceivedFromPeer)
attr title "packets received: unicast, sum(packetBytes)"
scalar ToyEVDoSScenario.ev[0].wlan[0].mac.dcf packetReceivedFromPeerMulticast:count 22
attr interpolationmode none
attr source ieee80211Multicast(packetReceivedFromPeer)
attr title "packets received: multicast, count"
scalar ToyEVDoSScenario.ev[0].wlan[0].mac.dcf packetReceivedFromPeerMulticast:sum(packetBytes) 8110
attr interpolationmode none
attr source ieee80211Multicast(packetReceivedFromPeer)
attr title "packets received: multicast, sum(packetBytes)"
scalar ToyEVDoSScenario.ev[0].wlan[0].mac.dcf packetReceivedFromPeerBroadcast:count 0
attr interpolationmode none
attr source ieee80211Broadcast(packetReceivedFromPeer)
attr title "packets received: broadcast, count"
scalar ToyEVDoSScenario.ev[0].wlan[0].mac.dcf packetReceivedFromPeerBroadcast:sum(packetBytes) 0
attr interpolationmode none
attr source ieee80211Broadcast(packetReceivedFromPeer)
attr title "packets received: broadcast, sum(packetBytes)"
scalar ToyEVDoSScenario.ev[0].wlan[0].mac.dcf packetReceivedFromPeerWithRetry:count 0
attr interpolationmode none
attr source ieee80211Retry(packetReceivedFromPeer)
attr title "packets received: with retry, count"
scalar ToyEVDoSScenario.ev[0].wlan[0].mac.dcf packetReceivedFromPeerWithRetry:sum(packetBytes) 0
attr interpolationmode none
attr source ieee80211Retry(packetReceivedFromPeer)
attr title "packets received: with retry, sum(packetBytes)"
scalar ToyEVDoSScenario.ev[0].wlan[0].mac.dcf packetReceivedFromPeerWithoutRetry:count 22
attr interpolationmode none
attr source ieee80211NotRetry(packetReceivedFromPeer)
attr title "packets received: without retry, count"
scalar ToyEVDoSScenario.ev[0].wlan[0].mac.dcf packetReceivedFromPeerWithoutRetry:sum(packetBytes) 8110
attr interpolationmode none
attr source ieee80211NotRetry(packetReceivedFromPeer)
attr title "packets received: without retry, sum(packetBytes)"
scalar ToyEVDoSScenario.ev[0].wlan[0].mac.dcf packetSentToPeer:count 773
attr interpolationmode none
attr title "packets sent, count"
scalar ToyEVDoSScenario.ev[0].wlan[0].mac.dcf packetSentToPeer:sum(packetBytes) 662536
attr interpolationmode none
attr title "packets sent, sum(packetBytes)"
scalar ToyEVDoSScenario.ev[0].wlan[0].mac.dcf packetSentToPeerUnicast:count 0
attr interpolationmode none
attr source ieee80211Unicast(packetSentToPeer)
attr title "packets sent: unicast, count"
scalar ToyEVDoSScenario.ev[0].wlan[0].mac.dcf packetSentToPeerUnicast:sum(packetBytes) 0
attr interpolationmode none
attr source ieee80211Unicast(packetSentToPeer)
attr title "packets sent: unicast, sum(packetBytes)"
scalar ToyEVDoSScenario.ev[0].wlan[0].mac.dcf packetSentToPeerMulticast:count 773
attr interpolationmode none
attr source ieee80211Multicast(packetSentToPeer)
attr title "packets sent: multicast, count"
scalar ToyEVDoSScenario.ev[0].wlan[0].mac.dcf packetSentToPeerMulticast:sum(packetBytes) 662536
attr interpolationmode none
attr source ieee80211Multicast(packetSentToPeer)
attr title "packets sent: multicast, sum(packetBytes)"
scalar ToyEVDoSScenario.ev[0].wlan[0].mac.dcf packetSentToPeerBroadcast:count 0
attr interpolationmode none
attr source ieee80211Broadcast(packetSentToPeer)
attr title "packets sent: broadcast , count"
scalar ToyEVDoSScenario.ev[0].wlan[0].mac.dcf packetSentToPeerBroadcast:sum(packetBytes) 0
attr interpolationmode none
attr source ieee80211Broadcast(packetSentToPeer)
attr title "packets sent: broadcast , sum(packetBytes)"
scalar ToyEVDoSScenario.ev[0].wlan[0].mac.dcf packetSentToPeerWithRetry:count 0
attr interpolationmode none
attr source ieee80211Retry(packetSentToPeer)
attr title "packets sent: with retry, count"
scalar ToyEVDoSScenario.ev[0].wlan[0].mac.dcf packetSentToPeerWithRetry:sum(packetBytes) 0
attr interpolationmode none
attr source ieee80211Retry(packetSentToPeer)
attr title "packets sent: with retry, sum(packetBytes)"
scalar ToyEVDoSScenario.ev[0].wlan[0].mac.dcf packetSentToPeerWithoutRetry:count 773
attr interpolationmode none
attr source ieee80211NotRetry(packetSentToPeer)
attr title "packets sent: without retry, count"
scalar ToyEVDoSScenario.ev[0].wlan[0].mac.dcf packetSentToPeerWithoutRetry:sum(packetBytes) 662536
attr interpolationmode none
attr source ieee80211NotRetry(packetSentToPeer)
attr title "packets sent: without retry, sum(packetBytes)"
scalar ToyEVDoSScenario.ev[0].wlan[0].mac.dcf packetDrop:count 0
attr interpolationmode none
attr source packetDropped
attr title "packet drops, count"
scalar ToyEVDoSScenario.ev[0].wlan[0].mac.dcf packetDrop:sum(packetBytes) 0
attr interpolationmode none
attr source packetDropped
attr title "packet drops, sum(packetBytes)"
scalar ToyEVDoSScenario.ev[0].wlan[0].mac.dcf packetDropNotAddressedToUs:count 0
attr interpolationmode none
attr source packetDropReasonIsNotAddressedToUs(packetDropped)
attr title "packet drops: not addressed to us, count"
scalar ToyEVDoSScenario.ev[0].wlan[0].mac.dcf packetDropNotAddressedToUs:sum(packetBytes) 0
attr interpolationmode none
attr source packetDropReasonIsNotAddressedToUs(packetDropped)
attr title "packet drops: not addressed to us, sum(packetBytes)"
scalar ToyEVDoSScenario.ev[0].wlan[0].mac.dcf packetDropQueueOverflow:count 0
attr interpolationmode none
attr source packetDropReasonIsQueueOverflow(packetDropped)
attr title "packet drops: queue overflow, count"
scalar ToyEVDoSScenario.ev[0].wlan[0].mac.dcf packetDropQueueOverflow:sum(packetBytes) 0
attr interpolationmode none
attr source packetDropReasonIsQueueOverflow(packetDropped)
attr title "packet drops: queue overflow, sum(packetBytes)"
scalar ToyEVDoSScenario.ev[0].wlan[0].mac.dcf packetDropRetryLimitReached:count 0
attr interpolationmode none
attr source packetDropReasonIsRetryLimitReached(packetDropped)
attr title "packet drops: retry limit reached, count"
scalar ToyEVDoSScenario.ev[0].wlan[0].mac.dcf packetDropRetryLimitReached:sum(packetBytes) 0
attr interpolationmode none
attr source packetDropReasonIsRetryLimitReached(packetDropped)
attr title "packet drops: retry limit reached, sum(packetBytes)"
scalar ToyEVDoSScenario.ev[0].wlan[0].mac.dcf linkBroken:count 0
attr interpolationmode none
attr title "link breaks, count"
scalar ToyEVDoSScenario.ev[0].wlan[0].mac.dcf frameSequenceFinished:count 773
attr title "finished frame sequences, count"
statistic ToyEVDoSScenario.ev[0].wlan[0].mac.dcf frameSequenceDuration:histogram
field count 773
field mean 0.00031458990944373
field stddev 0.00014375577934448
field min 3.8e-005
field max 0.00053
field sum 0.243178
field sqrsum 9.2455284e-005
attr source frameSequenceDuration(frameSequenceFinished)
attr title "frame sequence durations, histogram"
bin	-inf	0
bin	0	0
bin	1e-005	0
bin	2e-005	0
bin	3e-005	4
bin	4e-005	26
bin	5e-005	10
bin	6e-005	0
bin	7e-005	0
bin	8e-005	0
bin	9e-005	0
bin	0.0001	0
bin	0.00011	12
bin	0.00012	24
bin	0.00013	20
bin	0.00014	26
bin	0.00015	28
bin	0.00016	28
bin	0.00017	27
bin	0.00018	14
bin	0.00019	0
bin	0.0002	0
bin	0.00021	5
bin	0.00022	11
bin	0.00023	21
bin	0.00024	10
bin	0.00025	31
bin	0.00026	10
bin	0.00027	27
bin	0.00028	16
bin	0.00029	27
bin	0.0003	15
bin	0.00031	15
bin	0.00032	18
bin	0.00033	19
bin	0.00034	17
bin	0.00035	0
bin	0.00036	0
bin	0.00037	0
bin	0.00038	11
bin	0.00039	20
bin	0.0004	20
bin	0.00041	17
bin	0.00042	25
bin	0.00043	22
bin	0.00044	20
bin	0.00045	14
bin	0.00046	16
bin	0.00047	14
bin	0.00048	20
bin	0.00049	16
bin	0.0005	15
bin	0.00051	23
bin	0.00052	59
bin	0.00053	0
bin	0.00054	0
bin	0.00055	0
bin	0.00056	0
bin	0.00057	0
bin	0.00058	0
bin	0.00059	0
bin	0.0006	0
bin	0.00061	0
bin	0.00062	0
bin	0.00063	0
bin	0.00064	0
bin	0.00065	0
bin	0.00066	0
statistic ToyEVDoSScenario.ev[0].wlan[0].mac.dcf frameSequenceNumPackets:histogram
field count 773
field mean 1
field stddev 0
field min 1
field max 1
field sum 773
field sqrsum 773
attr source frameSequenceNumPackets(frameSequenceFinished)
attr title "frame sequences: number of packets, histogram"
bin	-inf	0
bin	0	0
bin	1	773
bin	2	0
scalar ToyEVDoSScenario.ev[0].wlan[0].mac packetReceivedFromLower:count 22
attr interpolationmode none
attr title "packets received from lower layer, count"
scalar ToyEVDoSScenario.ev[0].wlan[0].mac packetReceivedFromLower:sum(packetBytes) 8110
attr interpolationmode none
attr title "packets received from lower layer, sum(packetBytes)"
scalar ToyEVDoSScenario.ev[0].wlan[0].mac packetSentToLower:count 773
attr interpolationmode none
attr title "packets sent to lower layer, count"
scalar ToyEVDoSScenario.ev[0].wlan[0].mac packetSentToLower:sum(packetBytes) 662536
attr interpolationmode none
attr title "packets sent to lower layer, sum(packetBytes)"
scalar ToyEVDoSScenario.ev[0].wlan[0].mac packetReceivedFromUpper:count 733
attr interpolationmode none
attr title "packets received from upper layer, count"
scalar ToyEVDoSScenario.ev[0].wlan[0].mac packetReceivedFromUpper:sum(packetBytes) 640892
attr interpolationmode none
attr title "packets received from upper layer, sum(packetBytes)"
scalar ToyEVDoSScenario.ev[0].wlan[0].mac packetSentToUpper:count 22
attr interpolationmode none
attr title "packets sent to upper layer, count"
scalar ToyEVDoSScenario.ev[0].wlan[0].mac packetSentToUpper:sum(packetBytes) 7494
attr interpolationmode none
attr title "packets sent to upper layer, sum(packetBytes)"
scalar ToyEVDoSScenario.ev[0].wlan[0].mac packetDrop:count 0
attr interpolationmode none
attr source packetDropped
attr title "packet drops, count"
scalar ToyEVDoSScenario.ev[0].wlan[0].mac packetDrop:sum(packetBytes) 0
attr interpolationmode none
attr source packetDropped
attr title "packet drops, sum(packetBytes)"
scalar ToyEVDoSScenario.ev[0].wlan[0].mac packetDropIncorrectlyReceived:count 0
attr interpolationmode none
attr source packetDropReasonIsIncorrectlyReceived(packetDropped)
attr title "packet drops: incorrectly received, count"
scalar ToyEVDoSScenario.ev[0].wlan[0].mac packetDropIncorrectlyReceived:sum(packetBytes) 0
attr interpolationmode none
attr source packetDropReasonIsIncorrectlyReceived(packetDropped)
attr title "packet drops: incorrectly received, sum(packetBytes)"
scalar ToyEVDoSScenario.ev[0].wlan[0].mac packetDropNotAddressedToUs:count 0
attr interpolationmode none
attr source packetDropReasonIsNotAddressedToUs(packetDropped)
attr title "packet drops: not addressed to us, count"
scalar ToyEVDoSScenario.ev[0].wlan[0].mac packetDropNotAddressedToUs:sum(packetBytes) 0
attr interpolationmode none
attr source packetDropReasonIsNotAddressedToUs(packetDropped)
attr title "packet drops: not addressed to us, sum(packetBytes)"
scalar ToyEVDoSScenario.ev[0].wlan[0].mac packetDropQueueOverflow:count 0
attr interpolationmode none
attr source packetDropReasonIsQueueOverflow(packetDropped)
attr title "packet drops: queue overflow, count"
scalar ToyEVDoSScenario.ev[0].wlan[0].mac packetDropQueueOverflow:sum(packetBytes) 0
attr interpolationmode none
attr source packetDropReasonIsQueueOverflow(packetDropped)
attr title "packet drops: queue overflow, sum(packetBytes)"
scalar ToyEVDoSScenario.ev[0].wlan[0].mac packetDropRetryLimitReached:count 0
attr interpolationmode none
attr source packetDropReasonIsRetryLimitReached(packetDropped)
attr title "packet drops: retry limit reached, count"
scalar ToyEVDoSScenario.ev[0].wlan[0].mac packetDropRetryLimitReached:sum(packetBytes) 0
attr interpolationmode none
attr source packetDropReasonIsRetryLimitReached(packetDropped)
attr title "packet drops: retry limit reached, sum(packetBytes)"
scalar ToyEVDoSScenario.ev[0].wlan[0].mac packetDropDuplicateDetected:count 0
attr interpolationmode none
attr source packetDropReasonIsDuplicateDetected(packetDropped)
attr title "packet drops: duplicate detected, count"
scalar ToyEVDoSScenario.ev[0].wlan[0].mac packetDropDuplicateDetected:sum(packetBytes) 0
attr interpolationmode none
attr source packetDropReasonIsDuplicateDetected(packetDropped)
attr title "packet drops: duplicate detected, sum(packetBytes)"
scalar ToyEVDoSScenario.ev[0].wlan[0].mac packetDropOther:count 0
attr interpolationmode none
attr source packetDropReasonIsOther(packetDropped)
attr title "packet drops: other, count"
scalar ToyEVDoSScenario.ev[0].wlan[0].mac packetDropOther:sum(packetBytes) 0
attr interpolationmode none
attr source packetDropReasonIsOther(packetDropped)
attr title "packet drops: other, sum(packetBytes)"
scalar ToyEVDoSScenario.ev[0].wlan[0].mac linkBroken:count 0
attr interpolationmode none
attr title "link breaks, count"
statistic ToyEVDoSScenario.ev[0].wlan[0].radio minSnir:histogram
field count 22
field mean 8919.0583570332
field stddev 4278.4262586303
field min 6735.7567309922
field max 22312.803158122
field sum 196219.28385473
field sqrsum 2134494799.7369
attr source minimumSnir(packetSentToUpper)
attr title "Min SNIR, histogram"
bin	-inf	0
bin	2500	0
bin	3000	0
bin	3500	0
bin	4000	0
bin	4500	0
bin	5000	0
bin	5500	0
bin	6000	0
bin	6500	14
bin	7000	1
bin	7500	0
bin	8000	1
bin	8500	1
bin	9000	0
bin	9500	1
bin	10000	0
bin	10500	0
bin	11000	0
bin	11500	1
bin	12000	0
bin	12500	0
bin	13000	0
bin	13500	0
bin	14000	0
bin	14500	1
bin	15000	0
bin	15500	0
bin	16000	0
bin	16500	0
bin	17000	0
bin	17500	0
bin	18000	0
bin	18500	1
bin	19000	0
bin	19500	0
bin	20000	0
bin	20500	0
bin	21000	0
bin	21500	0
bin	22000	1
bin	22500	0
bin	23000	0
bin	23500	0
bin	24000	0
bin	24500	0
bin	25000	0
bin	25500	0
bin	26000	0
bin	26500	0
statistic ToyEVDoSScenario.ev[0].wlan[0].radio packetErrorRate:histogram
field count 22
field mean 0
field stddev 0
field min 0
field max 0
field sum 0
field sqrsum 0
attr source packetErrorRate(packetSentToUpper)
attr title "Packet error rate, histogram"
bin	-inf	0
bin	-0.5	0
bin	-0.48	0
bin	-0.46	0
bin	-0.44	0
bin	-0.42	0
bin	-0.4	0
bin	-0.38	0
bin	-0.36	0
bin	-0.34	0
bin	-0.32	0
bin	-0.3	0
bin	-0.28	0
bin	-0.26	0
bin	-0.24	0
bin	-0.22	0
bin	-0.2	0
bin	-0.18	0
bin	-0.16	0
bin	-0.14	0
bin	-0.12	0
bin	-0.1	0
bin	-0.08	0
bin	-0.06	0
bin	-0.04	0
bin	-0.02	0
bin	0	22
bin	0.02	0
bin	0.04	0
bin	0.06	0
bin	0.08	0
bin	0.1	0
bin	0.12	0
bin	0.14	0
bin	0.16	0
bin	0.18	0
bin	0.2	0
bin	0.22	0
bin	0.24	0
bin	0.26	0
bin	0.28	0
bin	0.3	0
bin	0.32	0
bin	0.34	0
bin	0.36	0
bin	0.38	0
bin	0.4	0
bin	0.42	0
bin	0.44	0
bin	0.46	0
bin	0.48	0
bin	0.5	0
statistic ToyEVDoSScenario.ev[0].wlan[0].radio bitErrorRate:histogram
field count 0
field mean nan
field stddev nan
field min nan
field max nan
field sum 0
field sqrsum 0
attr source bitErrorRate(packetSentToUpper)
attr title "Bit error rate, histogram"
bin	-inf	0
bin	0	0
bin	1	0
statistic ToyEVDoSScenario.ev[0].wlan[0].radio symbolErrorRate:histogram
field count 0
field mean nan
field stddev nan
field min nan
field max nan
field sum 0
field sqrsum 0
attr source symbolErrorRate(packetSentToUpper)
attr title "Symbol error rate, histogram"
bin	-inf	0
bin	0	0
bin	1	0
scalar ToyEVDoSScenario.ev[0].wlan[0].radio transmissionState:count 3092
attr interpolationmode sample-hold
attr source transmissionStateChanged
attr title "Radio transmission state, count"
scalar ToyEVDoSScenario.ev[0].wlan[0].radio receptionState:count 1591
attr interpolationmode sample-hold
attr source receptionStateChanged
attr title "Radio reception state, count"
scalar ToyEVDoSScenario.ev[0].wlan[0].radio radioMode:count 1549
attr interpolationmode sample-hold
attr source radioModeChanged
attr title "Radio mode, count"
statistic ToyEVDoSScenario.ev[0].wlan[0].radio radioChannel:histogram
field count 1
field mean 3
field stddev nan
field min 3
field max 3
field sum 3
field sqrsum 9
attr interpolationmode sample-hold
attr source radioChannelChanged
attr title "Radio channel, histogram"
bin	-inf	0
bin	2	0
bin	3	1
bin	4	0
scalar ToyEVDoSScenario.ev[0].ipv4.ip packetDropAddressResolutionFailed:count 0
attr interpolationmode none
attr source packetDropReasonIsAddressResolutionFailed(packetDropped)
attr title "packet drop: address resolution failed, count"
scalar ToyEVDoSScenario.ev[0].ipv4.ip packetDropAddressResolutionFailed:sum(packetBytes) 0
attr interpolationmode none
attr source packetDropReasonIsAddressResolutionFailed(packetDropped)
attr title "packet drop: address resolution failed, sum(packetBytes)"
scalar ToyEVDoSScenario.ev[0].ipv4.ip packetDropHopLimitReached:count 0
attr interpolationmode none
attr source packetDropReasonIsHopLimitReached(packetDropped)
attr title "packet drop: hop limit reached, count"
scalar ToyEVDoSScenario.ev[0].ipv4.ip packetDropHopLimitReached:sum(packetBytes) 0
attr interpolationmode none
attr source packetDropReasonIsHopLimitReached(packetDropped)
attr title "packet drop: hop limit reached, sum(packetBytes)"
scalar ToyEVDoSScenario.ev[0].ipv4.ip packetDropForwardingDisabled:count 0
attr interpolationmode none
attr source packetDropReasonIsForwardingDisabled(packetDropped)
attr title "packet drop: forwarding disabled, count"
scalar ToyEVDoSScenario.ev[0].ipv4.ip packetDropForwardingDisabled:sum(packetBytes) 0
attr interpolationmode none
attr source packetDropReasonIsForwardingDisabled(packetDropped)
attr title "packet drop: forwarding disabled, sum(packetBytes)"
scalar ToyEVDoSScenario.ev[0].ipv4.ip packetDropNoInterfaceFound:count 0
attr interpolationmode none
attr source packetDropReasonIsNoInterfaceFound(packetDropped)
attr title "packet drop: no interface found, count"
scalar ToyEVDoSScenario.ev[0].ipv4.ip packetDropNoInterfaceFound:sum(packetBytes) 0
attr interpolationmode none
attr source packetDropReasonIsNoInterfaceFound(packetDropped)
attr title "packet drop: no interface found, sum(packetBytes)"
scalar ToyEVDoSScenario.ev[0].ipv4.ip packetDropNoRouteFound:count 0
attr interpolationmode none
attr source packetDropReasonIsNoRouteFound(packetDropped)
attr title "packet drop: no route found, count"
scalar ToyEVDoSScenario.ev[0].ipv4.ip packetDropNoRouteFound:sum(packetBytes) 0
attr interpolationmode none
attr source packetDropReasonIsNoRouteFound(packetDropped)
attr title "packet drop: no route found, sum(packetBytes)"
scalar ToyEVDoSScenario.ev[0].ipv4.ip packetDropUndefined:count 0
attr interpolationmode none
attr source packetDropReasonIsUndefined(packetDropped)
attr title "packet drop: undefined, count"
scalar ToyEVDoSScenario.ev[0].ipv4.ip packetDropUndefined:sum(packetBytes) 0
attr interpolationmode none
attr source packetDropReasonIsUndefined(packetDropped)
attr title "packet drop: undefined, sum(packetBytes)"
scalar ToyEVDoSScenario.ev[0].ipv4.arp arpReplySent:count 0
attr source arpReplySent
attr title "ARP replies sent, count"
scalar ToyEVDoSScenario.ev[0].ipv4.arp arpReplySent:sum(packetBytes) 0
attr source arpReplySent
attr title "ARP replies sent, sum(packetBytes)"
scalar ToyEVDoSScenario.ev[0].ipv4.arp arpRequestSent:count 0
attr source arpRequestSent
attr title "ARP request sent, count"
scalar ToyEVDoSScenario.ev[0].ipv4.arp arpRequestSent:sum(packetBytes) 0
attr source arpRequestSent
attr title "ARP request sent, sum(packetBytes)"
scalar ToyEVDoSScenario.ev[0].ipv4.arp arpResolutionFailed:count 0
attr title "ARP failed resolutions, count"
scalar ToyEVDoSScenario.ev[0].ipv4.arp arpResolutionCompleted:count 0
attr title "ARP completed resolutions, count"
scalar ToyEVDoSScenario.ev[0].ipv4.arp arpResolutionInitiated:count 0
attr title "ARP initiated resolutions, count"
scalar ToyEVDoSScenario.ev[0].udp packetReceived:count 755
attr interpolationmode none
attr source packetReceived
attr title "packets received, count"
scalar ToyEVDoSScenario.ev[0].udp packetReceived:sum(packetBytes) 627246
attr interpolationmode none
attr source packetReceived
attr title "packets received, sum(packetBytes)"
scalar ToyEVDoSScenario.ev[0].udp packetSent:count 733
attr interpolationmode none
attr source packetSent
attr title "packets sent, count"
scalar ToyEVDoSScenario.ev[0].udp packetSent:sum(packetBytes) 620368
attr interpolationmode none
attr source packetSent
attr title "packets sent, sum(packetBytes)"
scalar ToyEVDoSScenario.ev[0].udp passedUpPk:count 755
attr interpolationmode none
attr source packetSentToUpper
attr title "packets passed up, count"
scalar ToyEVDoSScenario.ev[0].udp droppedPkWrongPort:count 0
attr interpolationmode none
attr source packetDropReasonIsNoPortFound(packetDropped)
attr title "packets dropped (wrong port), count"
scalar ToyEVDoSScenario.ev[0].udp droppedPkBadChecksum:count 0
attr interpolationmode none
attr source packetDropReasonIsIncorrectlyReceived(packetDropped)
attr title "packets dropped (checksum error), count"
scalar ToyEVDoSScenario.ev[0].app[0] packetsSent 733
scalar ToyEVDoSScenario.ev[0].app[0] packetsReceived 22
scalar ToyEVDoSScenario.ev[0].app[0] totalEnergyConsumed 18.523871250515
scalar ToyEVDoSScenario.ev[0].app[0] finalBatteryWh 141.47612874948
scalar ToyEVDoSScenario.ev[0].app[0] finalSoC 0.70738064374742
scalar ToyEVDoSScenario.ev[0].app[0] totalBytesSent 614504
scalar ToyEVDoSScenario.ev[0].app[0] totalBytesReceived 6702
scalar ToyEVDoSScenario.ev[0].app[0] packetSendRate 32.869955156951
scalar ToyEVDoSScenario.ev[0].app[0] packetRecvRate 0.98654708520179
scalar ToyEVDoSScenario.ev[0].app[0] attackDurationParam 60
scalar ToyEVDoSScenario.ev[0].app[0] isAttackerParam 1
statistic ToyEVDoSScenario.ev[0].app[0] senderSpeed:stats
field count 22
field mean 13.712057357019
field stddev 0.41010329850003
field min 12.117395364231
field max 13.889311396016
field sum 301.66526185443
field sqrsum 4139.9832521925
statistic ToyEVDoSScenario.ev[0].app[0] soc:stats
field count 772
field mean 0.73622847848554
field stddev 0.016949264574961
field min 0.70738064374742
field max 0.8
field sum 568.36838539084
field sqrsum 418.67048260177
attr title "State of Charge, stats"
statistic ToyEVDoSScenario.ev[0].app[0] batteryLevel:stats
field count 772
field mean 147.24569569711
field stddev 3.3898529149967
field min 141.47612874948
field max 160
field sum 113673.67707817
field sqrsum 16746819.304071
statistic ToyEVDoSScenario.ev[0].app[0] txDuration:stats
field count 22
field mean 0.00040618181818182
field stddev 6.6867691146683e-005
field min 0.00028933333333333
field max 0.00051866666666667
field sum 0.008936
field sqrsum 3.7235377777778e-006
statistic ToyEVDoSScenario.ev[0].app[0] energyConsumption:stats
field count 755
field mean 3.0213783253093e-008
field stddev 1.6154051038783e-008
field min 7.053928049878e-010
field max 6.4878385927373e-008
field sum 2.2811406356086e-005
field sqrsum 8.8597772452356e-013
statistic ToyEVDoSScenario.ev[0].app[0] interArrivalTime:stats
field count 755
field mean 0.058937219493739
field stddev 0.49353470384482
field min 0.000219158994
field max 11.499745409831
field sum 44.497600717773
field sqrsum 186.27924880044
statistic ToyEVDoSScenario.ev[0].app[0] packetSize:stats
field count 755
field mean 822.78940397351
field stddev 405.76730456983
field min 200
field max 1498
field sum 621206
field sqrsum 635265632
scalar ToyEVDoSScenario.ev[0].app[0] packetReceived:count 22
attr interpolationmode none
attr source packetReceived
attr title "packets received, count"
scalar ToyEVDoSScenario.ev[0].app[0] packetReceived:sum 22
attr interpolationmode none
attr source packetReceived
attr title "packets received, sum"
scalar ToyEVDoSScenario.ev[0].app[0] packetSent:count 733
attr interpolationmode none
attr source packetSent
attr title "packets sent, count"
scalar ToyEVDoSScenario.ev[0].app[0] packetSent:sum 269011
attr interpolationmode none
attr source packetSent
attr title "packets sent, sum"
scalar ToyEVDoSScenario.radioMedium.propagation "Arrival computation count" 3311
scalar ToyEVDoSScenario.radioMedium "transmission count" 1261
scalar ToyEVDoSScenario.radioMedium "signal send count" 3311
scalar ToyEVDoSScenario.radioMedium "reception computation count" 3311
scalar ToyEVDoSScenario.radioMedium "interference computation count" 11198
scalar ToyEVDoSScenario.radioMedium "reception decision computation count" 3311
scalar ToyEVDoSScenario.radioMedium "listening decision computation count" 4576
scalar ToyEVDoSScenario.radioMedium "reception cache hit" 85.714285714286
attr unit %
scalar ToyEVDoSScenario.radioMedium "interference cache hit" 66.666666666667
attr unit %
scalar ToyEVDoSScenario.radioMedium "noise cache hit" 0
attr unit %
scalar ToyEVDoSScenario.radioMedium "snir cache hit" 50
attr unit %
scalar ToyEVDoSScenario.radioMedium "reception decision cache hit" 50
attr unit %
scalar ToyEVDoSScenario.radioMedium "reception result cache hit" 0
attr unit %
scalar ToyEVDoSScenario.veinsManager roiArea 0
scalar ToyEVDoSScenario.cs[0].lo[0].lo rcvdPkFromHl:count 2
attr interpolationmode none
attr source packetReceivedFromUpper
attr title "packets received from higher layer, count"
scalar ToyEVDoSScenario.cs[0].lo[0].lo rcvdPkFromHl:sum(packetBytes) 256
attr interpolationmode none
attr source packetReceivedFromUpper
attr title "packets received from higher layer, sum(packetBytes)"
scalar ToyEVDoSScenario.cs[0].lo[0].lo passedUpPk:count 2
attr interpolationmode none
attr source packetSentToUpper
attr title "packets passed to higher layer, count"
scalar ToyEVDoSScenario.cs[0].lo[0].lo passedUpPk:sum(packetBytes) 256
attr interpolationmode none
attr source packetSentToUpper
attr title "packets passed to higher layer, sum(packetBytes)"
scalar ToyEVDoSScenario.cs[0].wlan[0].mac.dcf.channelAccess.pendingQueue packetPopped:count 2
attr interpolationmode none
attr title "packet popped, count"
scalar ToyEVDoSScenario.cs[0].wlan[0].mac.dcf.channelAccess.pendingQueue packetPopped:sum(packetBytes) 328
attr interpolationmode none
attr title "packet popped, sum(packetBytes)"
statistic ToyEVDoSScenario.cs[0].wlan[0].mac.dcf.channelAccess.pendingQueue queueingTime:histogram
field count 2
field mean 0.00021
field stddev 0.00019798989873223
field min 7e-005
field max 0.00035
field sum 0.00042
field sqrsum 1.274e-007
attr interpolationmode none
attr source queueingTime(packetPopped)
attr title "queueing times, histogram"
attr unit s
bin	-inf	0
bin	0	0
bin	5e-006	0
bin	1e-005	0
bin	1.5e-005	0
bin	2e-005	0
bin	2.5e-005	0
bin	3e-005	0
bin	3.5e-005	0
bin	4e-005	0
bin	4.5e-005	0
bin	5e-005	0
bin	5.5e-005	0
bin	6e-005	0
bin	6.5e-005	1
bin	7e-005	0
bin	7.5e-005	0
bin	8e-005	0
bin	8.5e-005	0
bin	9e-005	0
bin	9.5e-005	0
bin	0.0001	0
bin	0.000105	0
bin	0.00011	0
bin	0.000115	0
bin	0.00012	0
bin	0.000125	0
bin	0.00013	0
bin	0.000135	0
bin	0.00014	0
bin	0.000145	0
bin	0.00015	0
bin	0.000155	0
bin	0.00016	0
bin	0.000165	0
bin	0.00017	0
bin	0.000175	0
bin	0.00018	0
bin	0.000185	0
bin	0.00019	0
bin	0.000195	0
bin	0.0002	0
bin	0.000205	0
bin	0.00021	0
bin	0.000215	0
bin	0.00022	0
bin	0.000225	0
bin	0.00023	0
bin	0.000235	0
bin	0.00024	0
bin	0.000245	0
bin	0.00025	0
bin	0.000255	0
bin	0.00026	0
bin	0.000265	0
bin	0.00027	0
bin	0.000275	0
bin	0.00028	0
bin	0.000285	0
bin	0.00029	0
bin	0.000295	0
bin	0.0003	0
bin	0.000305	0
bin	0.00031	0
bin	0.000315	0
bin	0.00032	0
bin	0.000325	0
bin	0.00033	0
bin	0.000335	0
bin	0.00034	0
bin	0.000345	1
bin	0.00035	0
bin	0.000355	0
bin	0.00036	0
bin	0.000365	0
bin	0.00037	0
bin	0.000375	0
bin	0.00038	0
bin	0.000385	0
bin	0.00039	0
bin	0.000395	0
bin	0.0004	0
bin	0.000405	0
bin	0.00041	0
bin	0.000415	0
bin	0.00042	0
scalar ToyEVDoSScenario.cs[0].wlan[0].mac.dcf.channelAccess.pendingQueue queueLength:max 1
attr interpolationmode sample-hold
attr source "count(packetPushed) - count(packetPopped) - count(packetRemoved) - count(packetDropped)"
attr title "queue length, max"
scalar ToyEVDoSScenario.cs[0].wlan[0].mac.dcf.channelAccess.pendingQueue queueLength:timeavg 1.5561323776164e-006
attr interpolationmode sample-hold
attr source "count(packetPushed) - count(packetPopped) - count(packetRemoved) - count(packetDropped)"
attr title "queue length, timeavg"
scalar ToyEVDoSScenario.cs[0].wlan[0].mac.dcf.channelAccess.pendingQueue packetPushed:count 2
attr interpolationmode none
attr title "packet pushed, count"
scalar ToyEVDoSScenario.cs[0].wlan[0].mac.dcf.channelAccess.pendingQueue packetPushed:sum(packetBytes) 328
attr interpolationmode none
attr title "packet pushed, sum(packetBytes)"
scalar ToyEVDoSScenario.cs[0].wlan[0].mac.dcf.channelAccess.pendingQueue packetDropQueueOverflow:count 0
attr interpolationmode none
attr source packetDropReasonIsQueueOverflow(packetDropped)
attr title "packet drops: queue overflow, count"
scalar ToyEVDoSScenario.cs[0].wlan[0].mac.dcf.channelAccess.pendingQueue packetDropQueueOverflow:sum(packetBytes) 0
attr interpolationmode none
attr source packetDropReasonIsQueueOverflow(packetDropped)
attr title "packet drops: queue overflow, sum(packetBytes)"
scalar ToyEVDoSScenario.cs[0].wlan[0].mac.dcf.channelAccess.pendingQueue packetRemoved:count 0
attr interpolationmode none
attr title "packets removed, count"
scalar ToyEVDoSScenario.cs[0].wlan[0].mac.dcf.channelAccess.pendingQueue packetRemoved:sum(packetBytes) 0
attr interpolationmode none
attr title "packets removed, sum(packetBytes)"
statistic ToyEVDoSScenario.cs[0].wlan[0].mac.dcf.channelAccess.inProgressFrames queueingTime:histogram
field count 2
field mean 8.2e-005
field stddev 0
field min 8.2e-005
field max 8.2e-005
field sum 0.000164
field sqrsum 1.3448e-008
attr interpolationmode none
attr source queueingTime(packetDequeued)
attr title "queueing times, histogram"
bin	-inf	0
bin	0	2
bin	0.01	0
bin	0.02	0
bin	0.03	0
bin	0.04	0
bin	0.05	0
bin	0.06	0
bin	0.07	0
bin	0.08	0
bin	0.09	0
bin	0.1	0
bin	0.11	0
bin	0.12	0
bin	0.13	0
bin	0.14	0
bin	0.15	0
bin	0.16	0
bin	0.17	0
bin	0.18	0
bin	0.19	0
bin	0.2	0
bin	0.21	0
bin	0.22	0
bin	0.23	0
bin	0.24	0
bin	0.25	0
bin	0.26	0
bin	0.27	0
bin	0.28	0
bin	0.29	0
bin	0.3	0
bin	0.31	0
bin	0.32	0
bin	0.33	0
bin	0.34	0
bin	0.35	0
bin	0.36	0
bin	0.37	0
bin	0.38	0
bin	0.39	0
bin	0.4	0
bin	0.41	0
bin	0.42	0
bin	0.43	0
bin	0.44	0
bin	0.45	0
bin	0.46	0
bin	0.47	0
bin	0.48	0
bin	0.49	0
bin	0.5	0
bin	0.51	0
scalar ToyEVDoSScenario.cs[0].wlan[0].mac.dcf.channelAccess.inProgressFrames queueLength:max 1
attr interpolationmode sample-hold
attr source "count(packetEnqueued) - count(packetDequeued)"
attr title "queue length, max"
scalar ToyEVDoSScenario.cs[0].wlan[0].mac.dcf.channelAccess.inProgressFrames queueLength:timeavg 6.0763343065335e-007
attr interpolationmode sample-hold
attr source "count(packetEnqueued) - count(packetDequeued)"
attr title "queue length, timeavg"
scalar ToyEVDoSScenario.cs[0].wlan[0].mac.dcf.channelAccess.contention stateChanged:count 5054
attr interpolationmode none
attr title "contention state changed, count"
scalar ToyEVDoSScenario.cs[0].wlan[0].mac.dcf.channelAccess.contention channelAccessGranted:count 2
attr title "channel access granted, count"
scalar ToyEVDoSScenario.cs[0].wlan[0].mac.dcf.channelAccess channelOwnershipChanged:count 4
attr interpolationmode sample-hold
attr title "channel ownership, count"
scalar ToyEVDoSScenario.cs[0].wlan[0].mac.dcf.originatorMacDataService packetAggregated:count 0
attr title "packets aggregated, count"
scalar ToyEVDoSScenario.cs[0].wlan[0].mac.dcf.originatorMacDataService packetFragmented:count 0
attr title "packets fragmented, count"
scalar ToyEVDoSScenario.cs[0].wlan[0].mac.dcf.recipientMacDataService packetDropDuplicateDetected:count 0
attr interpolationmode none
attr source packetDropReasonIsDuplicateDetected(packetDropped)
attr title "packet drops: duplicate detected, count"
scalar ToyEVDoSScenario.cs[0].wlan[0].mac.dcf.recipientMacDataService packetDropDuplicateDetected:sum(packetBytes) 0
attr interpolationmode none
attr source packetDropReasonIsDuplicateDetected(packetDropped)
attr title "packet drops: duplicate detected, sum(packetBytes)"
scalar ToyEVDoSScenario.cs[0].wlan[0].mac.dcf.recipientMacDataService packetDeaggregated:count 0
attr title "packets deaggregated, count"
scalar ToyEVDoSScenario.cs[0].wlan[0].mac.dcf.recipientMacDataService packetDefragmented:count 1219
attr title "packets defragmented, count"
scalar ToyEVDoSScenario.cs[0].wlan[0].mac.dcf.recoveryProcedure retryLimitReached:count 0
attr title "retry limit reached, count"
scalar ToyEVDoSScenario.cs[0].wlan[0].mac.dcf packetReceivedFromPeer:count 1259
attr interpolationmode none
attr title "packets received, count"
scalar ToyEVDoSScenario.cs[0].wlan[0].mac.dcf packetReceivedFromPeer:sum(packetBytes) 837933
attr interpolationmode none
attr title "packets received, sum(packetBytes)"
scalar ToyEVDoSScenario.cs[0].wlan[0].mac.dcf packetReceivedFromPeerUnicast:count 0
attr interpolationmode none
attr source ieee80211Unicast(packetReceivedFromPeer)
attr title "packets received: unicast, count"
scalar ToyEVDoSScenario.cs[0].wlan[0].mac.dcf packetReceivedFromPeerUnicast:sum(packetBytes) 0
attr interpolationmode none
attr source ieee80211Unicast(packetReceivedFromPeer)
attr title "packets received: unicast, sum(packetBytes)"
scalar ToyEVDoSScenario.cs[0].wlan[0].mac.dcf packetReceivedFromPeerMulticast:count 1259
attr interpolationmode none
attr source ieee80211Multicast(packetReceivedFromPeer)
attr title "packets received: multicast, count"
scalar ToyEVDoSScenario.cs[0].wlan[0].mac.dcf packetReceivedFromPeerMulticast:sum(packetBytes) 837933
attr interpolationmode none
attr source ieee80211Multicast(packetReceivedFromPeer)
attr title "packets received: multicast, sum(packetBytes)"
scalar ToyEVDoSScenario.cs[0].wlan[0].mac.dcf packetReceivedFromPeerBroadcast:count 0
attr interpolationmode none
attr source ieee80211Broadcast(packetReceivedFromPeer)
attr title "packets received: broadcast, count"
scalar ToyEVDoSScenario.cs[0].wlan[0].mac.dcf packetReceivedFromPeerBroadcast:sum(packetBytes) 0
attr interpolationmode none
attr source ieee80211Broadcast(packetReceivedFromPeer)
attr title "packets received: broadcast, sum(packetBytes)"
scalar ToyEVDoSScenario.cs[0].wlan[0].mac.dcf packetReceivedFromPeerWithRetry:count 0
attr interpolationmode none
attr source ieee80211Retry(packetReceivedFromPeer)
attr title "packets received: with retry, count"
scalar ToyEVDoSScenario.cs[0].wlan[0].mac.dcf packetReceivedFromPeerWithRetry:sum(packetBytes) 0
attr interpolationmode none
attr source ieee80211Retry(packetReceivedFromPeer)
attr title "packets received: with retry, sum(packetBytes)"
scalar ToyEVDoSScenario.cs[0].wlan[0].mac.dcf packetReceivedFromPeerWithoutRetry:count 1259
attr interpolationmode none
attr source ieee80211NotRetry(packetReceivedFromPeer)
attr title "packets received: without retry, count"
scalar ToyEVDoSScenario.cs[0].wlan[0].mac.dcf packetReceivedFromPeerWithoutRetry:sum(packetBytes) 837933
attr interpolationmode none
attr source ieee80211NotRetry(packetReceivedFromPeer)
attr title "packets received: without retry, sum(packetBytes)"
scalar ToyEVDoSScenario.cs[0].wlan[0].mac.dcf packetSentToPeer:count 2
attr interpolationmode none
attr title "packets sent, count"
scalar ToyEVDoSScenario.cs[0].wlan[0].mac.dcf packetSentToPeer:sum(packetBytes) 328
attr interpolationmode none
attr title "packets sent, sum(packetBytes)"
scalar ToyEVDoSScenario.cs[0].wlan[0].mac.dcf packetSentToPeerUnicast:count 0
attr interpolationmode none
attr source ieee80211Unicast(packetSentToPeer)
attr title "packets sent: unicast, count"
scalar ToyEVDoSScenario.cs[0].wlan[0].mac.dcf packetSentToPeerUnicast:sum(packetBytes) 0
attr interpolationmode none
attr source ieee80211Unicast(packetSentToPeer)
attr title "packets sent: unicast, sum(packetBytes)"
scalar ToyEVDoSScenario.cs[0].wlan[0].mac.dcf packetSentToPeerMulticast:count 2
attr interpolationmode none
attr source ieee80211Multicast(packetSentToPeer)
attr title "packets sent: multicast, count"
scalar ToyEVDoSScenario.cs[0].wlan[0].mac.dcf packetSentToPeerMulticast:sum(packetBytes) 328
attr interpolationmode none
attr source ieee80211Multicast(packetSentToPeer)
attr title "packets sent: multicast, sum(packetBytes)"
scalar ToyEVDoSScenario.cs[0].wlan[0].mac.dcf packetSentToPeerBroadcast:count 0
attr interpolationmode none
attr source ieee80211Broadcast(packetSentToPeer)
attr title "packets sent: broadcast , count"
scalar ToyEVDoSScenario.cs[0].wlan[0].mac.dcf packetSentToPeerBroadcast:sum(packetBytes) 0
attr interpolationmode none
attr source ieee80211Broadcast(packetSentToPeer)
attr title "packets sent: broadcast , sum(packetBytes)"
scalar ToyEVDoSScenario.cs[0].wlan[0].mac.dcf packetSentToPeerWithRetry:count 0
attr interpolationmode none
attr source ieee80211Retry(packetSentToPeer)
attr title "packets sent: with retry, count"
scalar ToyEVDoSScenario.cs[0].wlan[0].mac.dcf packetSentToPeerWithRetry:sum(packetBytes) 0
attr interpolationmode none
attr source ieee80211Retry(packetSentToPeer)
attr title "packets sent: with retry, sum(packetBytes)"
scalar ToyEVDoSScenario.cs[0].wlan[0].mac.dcf packetSentToPeerWithoutRetry:count 2
attr interpolationmode none
attr source ieee80211NotRetry(packetSentToPeer)
attr title "packets sent: without retry, count"
scalar ToyEVDoSScenario.cs[0].wlan[0].mac.dcf packetSentToPeerWithoutRetry:sum(packetBytes) 328
attr interpolationmode none
attr source ieee80211NotRetry(packetSentToPeer)
attr title "packets sent: without retry, sum(packetBytes)"
scalar ToyEVDoSScenario.cs[0].wlan[0].mac.dcf packetDrop:count 0
attr interpolationmode none
attr source packetDropped
attr title "packet drops, count"
scalar ToyEVDoSScenario.cs[0].wlan[0].mac.dcf packetDrop:sum(packetBytes) 0
attr interpolationmode none
attr source packetDropped
attr title "packet drops, sum(packetBytes)"
scalar ToyEVDoSScenario.cs[0].wlan[0].mac.dcf packetDropNotAddressedToUs:count 0
attr interpolationmode none
attr source packetDropReasonIsNotAddressedToUs(packetDropped)
attr title "packet drops: not addressed to us, count"
scalar ToyEVDoSScenario.cs[0].wlan[0].mac.dcf packetDropNotAddressedToUs:sum(packetBytes) 0
attr interpolationmode none
attr source packetDropReasonIsNotAddressedToUs(packetDropped)
attr title "packet drops: not addressed to us, sum(packetBytes)"
scalar ToyEVDoSScenario.cs[0].wlan[0].mac.dcf packetDropQueueOverflow:count 0
attr interpolationmode none
attr source packetDropReasonIsQueueOverflow(packetDropped)
attr title "packet drops: queue overflow, count"
scalar ToyEVDoSScenario.cs[0].wlan[0].mac.dcf packetDropQueueOverflow:sum(packetBytes) 0
attr interpolationmode none
attr source packetDropReasonIsQueueOverflow(packetDropped)
attr title "packet drops: queue overflow, sum(packetBytes)"
scalar ToyEVDoSScenario.cs[0].wlan[0].mac.dcf packetDropRetryLimitReached:count 0
attr interpolationmode none
attr source packetDropReasonIsRetryLimitReached(packetDropped)
attr title "packet drops: retry limit reached, count"
scalar ToyEVDoSScenario.cs[0].wlan[0].mac.dcf packetDropRetryLimitReached:sum(packetBytes) 0
attr interpolationmode none
attr source packetDropReasonIsRetryLimitReached(packetDropped)
attr title "packet drops: retry limit reached, sum(packetBytes)"
scalar ToyEVDoSScenario.cs[0].wlan[0].mac.dcf linkBroken:count 0
attr interpolationmode none
attr title "link breaks, count"
scalar ToyEVDoSScenario.cs[0].wlan[0].mac.dcf frameSequenceFinished:count 2
attr title "finished frame sequences, count"
statistic ToyEVDoSScenario.cs[0].wlan[0].mac.dcf frameSequenceDuration:histogram
field count 2
field mean 8.2e-005
field stddev 0
field min 8.2e-005
field max 8.2e-005
field sum 0.000164
field sqrsum 1.3448e-008
attr source frameSequenceDuration(frameSequenceFinished)
attr title "frame sequence durations, histogram"
bin	-inf	0
bin	0	2
bin	0.01	0
bin	0.02	0
bin	0.03	0
bin	0.04	0
bin	0.05	0
bin	0.06	0
bin	0.07	0
bin	0.08	0
bin	0.09	0
bin	0.1	0
bin	0.11	0
bin	0.12	0
bin	0.13	0
bin	0.14	0
bin	0.15	0
bin	0.16	0
bin	0.17	0
bin	0.18	0
bin	0.19	0
bin	0.2	0
bin	0.21	0
bin	0.22	0
bin	0.23	0
bin	0.24	0
bin	0.25	0
bin	0.26	0
bin	0.27	0
bin	0.28	0
bin	0.29	0
bin	0.3	0
bin	0.31	0
bin	0.32	0
bin	0.33	0
bin	0.34	0
bin	0.35	0
bin	0.36	0
bin	0.37	0
bin	0.38	0
bin	0.39	0
bin	0.4	0
bin	0.41	0
bin	0.42	0
bin	0.43	0
bin	0.44	0
bin	0.45	0
bin	0.46	0
bin	0.47	0
bin	0.48	0
bin	0.49	0
bin	0.5	0
bin	0.51	0
statistic ToyEVDoSScenario.cs[0].wlan[0].mac.dcf frameSequenceNumPackets:histogram
field count 2
field mean 1
field stddev 0
field min 1
field max 1
field sum 2
field sqrsum 2
attr source frameSequenceNumPackets(frameSequenceFinished)
attr title "frame sequences: number of packets, histogram"
bin	-inf	0
bin	0	0
bin	1	2
bin	2	0
scalar ToyEVDoSScenario.cs[0].wlan[0].mac packetReceivedFromLower:count 1259
attr interpolationmode none
attr title "packets received from lower layer, count"
scalar ToyEVDoSScenario.cs[0].wlan[0].mac packetReceivedFromLower:sum(packetBytes) 837933
attr interpolationmode none
attr title "packets received from lower layer, sum(packetBytes)"
scalar ToyEVDoSScenario.cs[0].wlan[0].mac packetSentToLower:count 2
attr interpolationmode none
attr title "packets sent to lower layer, count"
scalar ToyEVDoSScenario.cs[0].wlan[0].mac packetSentToLower:sum(packetBytes) 328
attr interpolationmode none
attr title "packets sent to lower layer, sum(packetBytes)"
scalar ToyEVDoSScenario.cs[0].wlan[0].mac packetReceivedFromUpper:count 2
attr interpolationmode none
attr title "packets received from upper layer, count"
scalar ToyEVDoSScenario.cs[0].wlan[0].mac packetReceivedFromUpper:sum(packetBytes) 272
attr interpolationmode none
attr title "packets received from upper layer, sum(packetBytes)"
scalar ToyEVDoSScenario.cs[0].wlan[0].mac packetSentToUpper:count 1219
attr interpolationmode none
attr title "packets sent to upper layer, count"
scalar ToyEVDoSScenario.cs[0].wlan[0].mac packetSentToUpper:sum(packetBytes) 802681
attr interpolationmode none
attr title "packets sent to upper layer, sum(packetBytes)"
scalar ToyEVDoSScenario.cs[0].wlan[0].mac packetDrop:count 0
attr interpolationmode none
attr source packetDropped
attr title "packet drops, count"
scalar ToyEVDoSScenario.cs[0].wlan[0].mac packetDrop:sum(packetBytes) 0
attr interpolationmode none
attr source packetDropped
attr title "packet drops, sum(packetBytes)"
scalar ToyEVDoSScenario.cs[0].wlan[0].mac packetDropIncorrectlyReceived:count 0
attr interpolationmode none
attr source packetDropReasonIsIncorrectlyReceived(packetDropped)
attr title "packet drops: incorrectly received, count"
scalar ToyEVDoSScenario.cs[0].wlan[0].mac packetDropIncorrectlyReceived:sum(packetBytes) 0
attr interpolationmode none
attr source packetDropReasonIsIncorrectlyReceived(packetDropped)
attr title "packet drops: incorrectly received, sum(packetBytes)"
scalar ToyEVDoSScenario.cs[0].wlan[0].mac packetDropNotAddressedToUs:count 0
attr interpolationmode none
attr source packetDropReasonIsNotAddressedToUs(packetDropped)
attr title "packet drops: not addressed to us, count"
scalar ToyEVDoSScenario.cs[0].wlan[0].mac packetDropNotAddressedToUs:sum(packetBytes) 0
attr interpolationmode none
attr source packetDropReasonIsNotAddressedToUs(packetDropped)
attr title "packet drops: not addressed to us, sum(packetBytes)"
scalar ToyEVDoSScenario.cs[0].wlan[0].mac packetDropQueueOverflow:count 0
attr interpolationmode none
attr source packetDropReasonIsQueueOverflow(packetDropped)
attr title "packet drops: queue overflow, count"
scalar ToyEVDoSScenario.cs[0].wlan[0].mac packetDropQueueOverflow:sum(packetBytes) 0
attr interpolationmode none
attr source packetDropReasonIsQueueOverflow(packetDropped)
attr title "packet drops: queue overflow, sum(packetBytes)"
scalar ToyEVDoSScenario.cs[0].wlan[0].mac packetDropRetryLimitReached:count 0
attr interpolationmode none
attr source packetDropReasonIsRetryLimitReached(packetDropped)
attr title "packet drops: retry limit reached, count"
scalar ToyEVDoSScenario.cs[0].wlan[0].mac packetDropRetryLimitReached:sum(packetBytes) 0
attr interpolationmode none
attr source packetDropReasonIsRetryLimitReached(packetDropped)
attr title "packet drops: retry limit reached, sum(packetBytes)"
scalar ToyEVDoSScenario.cs[0].wlan[0].mac packetDropDuplicateDetected:count 0
attr interpolationmode none
attr source packetDropReasonIsDuplicateDetected(packetDropped)
attr title "packet drops: duplicate detected, count"
scalar ToyEVDoSScenario.cs[0].wlan[0].mac packetDropDuplicateDetected:sum(packetBytes) 0
attr interpolationmode none
attr source packetDropReasonIsDuplicateDetected(packetDropped)
attr title "packet drops: duplicate detected, sum(packetBytes)"
scalar ToyEVDoSScenario.cs[0].wlan[0].mac packetDropOther:count 0
attr interpolationmode none
attr source packetDropReasonIsOther(packetDropped)
attr title "packet drops: other, count"
scalar ToyEVDoSScenario.cs[0].wlan[0].mac packetDropOther:sum(packetBytes) 0
attr interpolationmode none
attr source packetDropReasonIsOther(packetDropped)
attr title "packet drops: other, sum(packetBytes)"
scalar ToyEVDoSScenario.cs[0].wlan[0].mac linkBroken:count 0
attr interpolationmode none
attr title "link breaks, count"
statistic ToyEVDoSScenario.cs[0].wlan[0].radio minSnir:histogram
field count 1259
field mean 5000.875573644
field stddev 8959.5665376386
field min 408.83223245827
field max 59841.970642471
field sum 6296102.3472178
field sqrsum 132470505775.67
attr source minimumSnir(packetSentToUpper)
attr title "Min SNIR, histogram"
bin	-inf	0
bin	350	948
bin	1630	24
bin	2910	12
bin	4190	7
bin	5470	7
bin	6750	3
bin	8030	3
bin	9310	2
bin	10590	2
bin	11870	1
bin	13150	2
bin	14430	2
bin	15710	2
bin	16990	0
bin	18270	158
bin	19550	2
bin	20830	48
bin	22110	3
bin	23390	2
bin	24670	2
bin	25950	0
bin	27230	3
bin	28510	2
bin	29790	1
bin	31070	1
bin	32350	2
bin	33630	3
bin	34910	0
bin	36190	2
bin	37470	1
bin	38750	0
bin	40030	1
bin	41310	2
bin	42590	1
bin	43870	2
bin	45150	4
bin	46430	0
bin	47710	1
bin	48990	0
bin	50270	0
bin	51550	1
bin	52830	0
bin	54110	0
bin	55390	0
bin	56670	0
bin	57950	0
bin	59230	2
bin	60510	0
statistic ToyEVDoSScenario.cs[0].wlan[0].radio packetErrorRate:histogram
field count 1259
field mean 0
field stddev 0
field min 0
field max 0
field sum 0
field sqrsum 0
attr source packetErrorRate(packetSentToUpper)
attr title "Packet error rate, histogram"
bin	-inf	0
bin	-0.5	0
bin	-0.48	0
bin	-0.46	0
bin	-0.44	0
bin	-0.42	0
bin	-0.4	0
bin	-0.38	0
bin	-0.36	0
bin	-0.34	0
bin	-0.32	0
bin	-0.3	0
bin	-0.28	0
bin	-0.26	0
bin	-0.24	0
bin	-0.22	0
bin	-0.2	0
bin	-0.18	0
bin	-0.16	0
bin	-0.14	0
bin	-0.12	0
bin	-0.1	0
bin	-0.08	0
bin	-0.06	0
bin	-0.04	0
bin	-0.02	0
bin	0	1259
bin	0.02	0
bin	0.04	0
bin	0.06	0
bin	0.08	0
bin	0.1	0
bin	0.12	0
bin	0.14	0
bin	0.16	0
bin	0.18	0
bin	0.2	0
bin	0.22	0
bin	0.24	0
bin	0.26	0
bin	0.28	0
bin	0.3	0
bin	0.32	0
bin	0.34	0
bin	0.36	0
bin	0.38	0
bin	0.4	0
bin	0.42	0
bin	0.44	0
bin	0.46	0
bin	0.48	0
bin	0.5	0
statistic ToyEVDoSScenario.cs[0].wlan[0].radio bitErrorRate:histogram
field count 0
field mean nan
field stddev nan
field min nan
field max nan
field sum 0
field sqrsum 0
attr source bitErrorRate(packetSentToUpper)
attr title "Bit error rate, histogram"
bin	-inf	0
bin	0	0
bin	1	0
statistic ToyEVDoSScenario.cs[0].wlan[0].radio symbolErrorRate:histogram
field count 0
field mean nan
field stddev nan
field min nan
field max nan
field sum 0
field sqrsum 0
attr source symbolErrorRate(packetSentToUpper)
attr title "Symbol error rate, histogram"
bin	-inf	0
bin	0	0
bin	1	0
scalar ToyEVDoSScenario.cs[0].wlan[0].radio transmissionState:count 8
attr interpolationmode sample-hold
attr source transmissionStateChanged
attr title "Radio transmission state, count"
scalar ToyEVDoSScenario.cs[0].wlan[0].radio receptionState:count 2523
attr interpolationmode sample-hold
attr source receptionStateChanged
attr title "Radio reception state, count"
scalar ToyEVDoSScenario.cs[0].wlan[0].radio radioMode:count 7
attr interpolationmode sample-hold
attr source radioModeChanged
attr title "Radio mode, count"
statistic ToyEVDoSScenario.cs[0].wlan[0].radio radioChannel:histogram
field count 1
field mean 3
field stddev nan
field min 3
field max 3
field sum 3
field sqrsum 9
attr interpolationmode sample-hold
attr source radioChannelChanged
attr title "Radio channel, histogram"
bin	-inf	0
bin	2	0
bin	3	1
bin	4	0
scalar ToyEVDoSScenario.cs[0].ipv4.ip packetDropAddressResolutionFailed:count 0
attr interpolationmode none
attr source packetDropReasonIsAddressResolutionFailed(packetDropped)
attr title "packet drop: address resolution failed, count"
scalar ToyEVDoSScenario.cs[0].ipv4.ip packetDropAddressResolutionFailed:sum(packetBytes) 0
attr interpolationmode none
attr source packetDropReasonIsAddressResolutionFailed(packetDropped)
attr title "packet drop: address resolution failed, sum(packetBytes)"
scalar ToyEVDoSScenario.cs[0].ipv4.ip packetDropHopLimitReached:count 0
attr interpolationmode none
attr source packetDropReasonIsHopLimitReached(packetDropped)
attr title "packet drop: hop limit reached, count"
scalar ToyEVDoSScenario.cs[0].ipv4.ip packetDropHopLimitReached:sum(packetBytes) 0
attr interpolationmode none
attr source packetDropReasonIsHopLimitReached(packetDropped)
attr title "packet drop: hop limit reached, sum(packetBytes)"
scalar ToyEVDoSScenario.cs[0].ipv4.ip packetDropForwardingDisabled:count 0
attr interpolationmode none
attr source packetDropReasonIsForwardingDisabled(packetDropped)
attr title "packet drop: forwarding disabled, count"
scalar ToyEVDoSScenario.cs[0].ipv4.ip packetDropForwardingDisabled:sum(packetBytes) 0
attr interpolationmode none
attr source packetDropReasonIsForwardingDisabled(packetDropped)
attr title "packet drop: forwarding disabled, sum(packetBytes)"
scalar ToyEVDoSScenario.cs[0].ipv4.ip packetDropNoInterfaceFound:count 0
attr interpolationmode none
attr source packetDropReasonIsNoInterfaceFound(packetDropped)
attr title "packet drop: no interface found, count"
scalar ToyEVDoSScenario.cs[0].ipv4.ip packetDropNoInterfaceFound:sum(packetBytes) 0
attr interpolationmode none
attr source packetDropReasonIsNoInterfaceFound(packetDropped)
attr title "packet drop: no interface found, sum(packetBytes)"
scalar ToyEVDoSScenario.cs[0].ipv4.ip packetDropNoRouteFound:count 0
attr interpolationmode none
attr source packetDropReasonIsNoRouteFound(packetDropped)
attr title "packet drop: no route found, count"
scalar ToyEVDoSScenario.cs[0].ipv4.ip packetDropNoRouteFound:sum(packetBytes) 0
attr interpolationmode none
attr source packetDropReasonIsNoRouteFound(packetDropped)
attr title "packet drop: no route found, sum(packetBytes)"
scalar ToyEVDoSScenario.cs[0].ipv4.ip packetDropUndefined:count 0
attr interpolationmode none
attr source packetDropReasonIsUndefined(packetDropped)
attr title "packet drop: undefined, count"
scalar ToyEVDoSScenario.cs[0].ipv4.ip packetDropUndefined:sum(packetBytes) 0
attr interpolationmode none
attr source packetDropReasonIsUndefined(packetDropped)
attr title "packet drop: undefined, sum(packetBytes)"
scalar ToyEVDoSScenario.cs[0].ipv4.arp arpReplySent:count 0
attr source arpReplySent
attr title "ARP replies sent, count"
scalar ToyEVDoSScenario.cs[0].ipv4.arp arpReplySent:sum(packetBytes) 0
attr source arpReplySent
attr title "ARP replies sent, sum(packetBytes)"
scalar ToyEVDoSScenario.cs[0].ipv4.arp arpRequestSent:count 0
attr source arpRequestSent
attr title "ARP request sent, count"
scalar ToyEVDoSScenario.cs[0].ipv4.arp arpRequestSent:sum(packetBytes) 0
attr source arpRequestSent
attr title "ARP request sent, sum(packetBytes)"
scalar ToyEVDoSScenario.cs[0].ipv4.arp arpResolutionFailed:count 0
attr title "ARP failed resolutions, count"
scalar ToyEVDoSScenario.cs[0].ipv4.arp arpResolutionCompleted:count 0
attr title "ARP completed resolutions, count"
scalar ToyEVDoSScenario.cs[0].ipv4.arp arpResolutionInitiated:count 0
attr title "ARP initiated resolutions, count"
scalar ToyEVDoSScenario.cs[0].udp packetReceived:count 1221
attr interpolationmode none
attr source packetReceived
attr title "packets received, count"
scalar ToyEVDoSScenario.cs[0].udp packetReceived:sum(packetBytes) 768765
attr interpolationmode none
attr source packetReceived
attr title "packets received, sum(packetBytes)"
scalar ToyEVDoSScenario.cs[0].udp packetSent:count 2
attr interpolationmode none
attr source packetSent
attr title "packets sent, count"
scalar ToyEVDoSScenario.cs[0].udp packetSent:sum(packetBytes) 216
attr interpolationmode none
attr source packetSent
attr title "packets sent, sum(packetBytes)"
scalar ToyEVDoSScenario.cs[0].udp passedUpPk:count 1221
attr interpolationmode none
attr source packetSentToUpper
attr title "packets passed up, count"
scalar ToyEVDoSScenario.cs[0].udp droppedPkWrongPort:count 0
attr interpolationmode none
attr source packetDropReasonIsNoPortFound(packetDropped)
attr title "packets dropped (wrong port), count"
scalar ToyEVDoSScenario.cs[0].udp droppedPkBadChecksum:count 0
attr interpolationmode none
attr source packetDropReasonIsIncorrectlyReceived(packetDropped)
attr title "packets dropped (checksum error), count"
scalar ToyEVDoSScenario.cs[0].app[0] packetsReceived 525
scalar ToyEVDoSScenario.cs[0].app[0] chargeRequestsReceived 2
scalar ToyEVDoSScenario.cs[0].app[0] totalEnergyConsumed 3.3101776781718e-006
scalar ToyEVDoSScenario.cs[0].app[0] totalEnergyDelivered 266
scalar ToyEVDoSScenario.cs[0].app[0] finalCSBatteryWh 50000
scalar ToyEVDoSScenario.cs[0].app[0] finalCSSoC 1
scalar ToyEVDoSScenario.cs[0].app[0] avgPacketRate 1.75
scalar ToyEVDoSScenario.cs[0].app[0] chargeRequestReceived:count 2
statistic ToyEVDoSScenario.cs[0].app[0] txDuration:stats
field count 525
field mean 0.00045529396825397
field stddev 0.00026634580437085
field min 6.6666666666667e-005
field max 0.0019813333333333
field sum 0.23902933333333
field sqrsum 0.00014600121955556
statistic ToyEVDoSScenario.cs[0].app[0] energyConsumption:stats
field count 525
field mean 6.3051003393749e-009
field stddev 3.6614231579956e-009
field min 9.5328613186548e-010
field max 2.9302084124365e-008
field sum 3.3101776781718e-006
field sqrsum 2.7895756641992e-014
statistic ToyEVDoSScenario.cs[0].app[0] interArrivalTime:histogram
field count 525
field mean 0.57072223848812
field stddev 0.37222974075235
field min 0
field max 6.37454169612
field sum 299.62917520626
field sqrsum 243.60784305796
bin	-inf	0
bin	0	35
bin	0.1	6
bin	0.2	58
bin	0.3	56
bin	0.4	71
bin	0.5	59
bin	0.6	48
bin	0.7	62
bin	0.8	65
bin	0.9	63
bin	1	0
bin	1.1	0
bin	1.2	1
bin	1.3	0
bin	1.4	0
bin	1.5	0
bin	1.6	0
bin	1.7	0
bin	1.8	0
bin	1.9	0
bin	2	0
bin	2.1	0
bin	2.2	0
bin	2.3	0
bin	2.4	0
bin	2.5	0
bin	2.6	0
bin	2.7	0
bin	2.8	0
bin	2.9	0
bin	3	0
bin	3.1	0
bin	3.2	0
bin	3.3	0
bin	3.4	0
bin	3.5	0
bin	3.6	0
bin	3.7	0
bin	3.8	0
bin	3.9	0
bin	4	0
bin	4.1	0
bin	4.2	0
bin	4.3	0
bin	4.4	0
bin	4.5	0
bin	4.6	0
bin	4.7	0
bin	4.8	0
bin	4.9	0
bin	5	0
bin	5.1	0
bin	5.2	0
bin	5.3	0
bin	5.4	0
bin	5.5	0
bin	5.6	0
bin	5.7	0
bin	5.8	0
bin	5.9	0
bin	6	0
bin	6.1	0
bin	6.2	0
bin	6.3	1
bin	6.4	0
bin	6.5	0
bin	6.6	0
bin	6.7	0
bin	6.8	0
bin	6.9	0
bin	7	0
bin	7.1	0
bin	7.2	0
bin	7.3	0
bin	7.4	0
bin	7.5	0
bin	7.6	0
bin	7.7	0
bin	7.8	0
bin	7.9	0
bin	8	0
statistic ToyEVDoSScenario.cs[0].app[0] packetSize:histogram
field count 525
field mean 341.47047619048
field stddev 199.75935327814
field min 50
field max 1486
field sum 179272
field sqrsum 82125686
bin	-inf	0
bin	0	0
bin	20	0
bin	40	1
bin	60	0
bin	80	0
bin	100	4
bin	120	0
bin	140	0
bin	160	0
bin	180	0
bin	200	41
bin	220	54
bin	240	51
bin	260	55
bin	280	54
bin	300	50
bin	320	51
bin	340	38
bin	360	47
bin	380	44
bin	400	3
bin	420	0
bin	440	0
bin	460	0
bin	480	0
bin	500	0
bin	520	1
bin	540	0
bin	560	0
bin	580	1
bin	600	0
bin	620	2
bin	640	0
bin	660	0
bin	680	0
bin	700	1
bin	720	0
bin	740	1
bin	760	1
bin	780	0
bin	800	0
bin	820	1
bin	840	1
bin	860	2
bin	880	2
bin	900	0
bin	920	0
bin	940	0
bin	960	0
bin	980	0
bin	1000	0
bin	1020	0
bin	1040	2
bin	1060	2
bin	1080	1
bin	1100	0
bin	1120	0
bin	1140	2
bin	1160	1
bin	1180	1
bin	1200	0
bin	1220	0
bin	1240	0
bin	1260	1
bin	1280	2
bin	1300	0
bin	1320	2
bin	1340	1
bin	1360	0
bin	1380	1
bin	1400	1
bin	1420	0
bin	1440	1
bin	1460	0
bin	1480	1
bin	1500	0
bin	1520	0
bin	1540	0
bin	1560	0
bin	1580	0
bin	1600	0
bin	1620	0
bin	1640	0
bin	1660	0
bin	1680	0
bin	1700	0
bin	1720	0
bin	1740	0
bin	1760	0
bin	1780	0
bin	1800	0
bin	1820	0
bin	1840	0
scalar ToyEVDoSScenario.cs[0].app[0] packetReceived:count 525
scalar ToyEVDoSScenario.rsu[0].lo[0].lo rcvdPkFromHl:count 0
attr interpolationmode none
attr source packetReceivedFromUpper
attr title "packets received from higher layer, count"
scalar ToyEVDoSScenario.rsu[0].lo[0].lo rcvdPkFromHl:sum(packetBytes) 0
attr interpolationmode none
attr source packetReceivedFromUpper
attr title "packets received from higher layer, sum(packetBytes)"
scalar ToyEVDoSScenario.rsu[0].lo[0].lo passedUpPk:count 0
attr interpolationmode none
attr source packetSentToUpper
attr title "packets passed to higher layer, count"
scalar ToyEVDoSScenario.rsu[0].lo[0].lo passedUpPk:sum(packetBytes) 0
attr interpolationmode none
attr source packetSentToUpper
attr title "packets passed to higher layer, sum(packetBytes)"
scalar ToyEVDoSScenario.rsu[0].wlan[0].mac.dcf.channelAccess.pendingQueue packetPopped:count 0
attr interpolationmode none
attr title "packet popped, count"
scalar ToyEVDoSScenario.rsu[0].wlan[0].mac.dcf.channelAccess.pendingQueue packetPopped:sum(packetBytes) 0
attr interpolationmode none
attr title "packet popped, sum(packetBytes)"
statistic ToyEVDoSScenario.rsu[0].wlan[0].mac.dcf.channelAccess.pendingQueue queueingTime:histogram
field count 0
field mean nan
field stddev nan
field min nan
field max nan
field sum 0
field sqrsum 0
attr interpolationmode none
attr source queueingTime(packetPopped)
attr title "queueing times, histogram"
attr unit s
bin	-inf	0
bin	0	0
bin	1	0
scalar ToyEVDoSScenario.rsu[0].wlan[0].mac.dcf.channelAccess.pendingQueue queueLength:max nan
attr interpolationmode sample-hold
attr source "count(packetPushed) - count(packetPopped) - count(packetRemoved) - count(packetDropped)"
attr title "queue length, max"
scalar ToyEVDoSScenario.rsu[0].wlan[0].mac.dcf.channelAccess.pendingQueue queueLength:timeavg nan
attr interpolationmode sample-hold
attr source "count(packetPushed) - count(packetPopped) - count(packetRemoved) - count(packetDropped)"
attr title "queue length, timeavg"
scalar ToyEVDoSScenario.rsu[0].wlan[0].mac.dcf.channelAccess.pendingQueue packetPushed:count 0
attr interpolationmode none
attr title "packet pushed, count"
scalar ToyEVDoSScenario.rsu[0].wlan[0].mac.dcf.channelAccess.pendingQueue packetPushed:sum(packetBytes) 0
attr interpolationmode none
attr title "packet pushed, sum(packetBytes)"
scalar ToyEVDoSScenario.rsu[0].wlan[0].mac.dcf.channelAccess.pendingQueue packetDropQueueOverflow:count 0
attr interpolationmode none
attr source packetDropReasonIsQueueOverflow(packetDropped)
attr title "packet drops: queue overflow, count"
scalar ToyEVDoSScenario.rsu[0].wlan[0].mac.dcf.channelAccess.pendingQueue packetDropQueueOverflow:sum(packetBytes) 0
attr interpolationmode none
attr source packetDropReasonIsQueueOverflow(packetDropped)
attr title "packet drops: queue overflow, sum(packetBytes)"
scalar ToyEVDoSScenario.rsu[0].wlan[0].mac.dcf.channelAccess.pendingQueue packetRemoved:count 0
attr interpolationmode none
attr title "packets removed, count"
scalar ToyEVDoSScenario.rsu[0].wlan[0].mac.dcf.channelAccess.pendingQueue packetRemoved:sum(packetBytes) 0
attr interpolationmode none
attr title "packets removed, sum(packetBytes)"
statistic ToyEVDoSScenario.rsu[0].wlan[0].mac.dcf.channelAccess.inProgressFrames queueingTime:histogram
field count 0
field mean nan
field stddev nan
field min nan
field max nan
field sum 0
field sqrsum 0
attr interpolationmode none
attr source queueingTime(packetDequeued)
attr title "queueing times, histogram"
bin	-inf	0
bin	0	0
bin	1	0
scalar ToyEVDoSScenario.rsu[0].wlan[0].mac.dcf.channelAccess.inProgressFrames queueLength:max nan
attr interpolationmode sample-hold
attr source "count(packetEnqueued) - count(packetDequeued)"
attr title "queue length, max"
scalar ToyEVDoSScenario.rsu[0].wlan[0].mac.dcf.channelAccess.inProgressFrames queueLength:timeavg nan
attr interpolationmode sample-hold
attr source "count(packetEnqueued) - count(packetDequeued)"
attr title "queue length, timeavg"
scalar ToyEVDoSScenario.rsu[0].wlan[0].mac.dcf.channelAccess.contention stateChanged:count 5046
attr interpolationmode none
attr title "contention state changed, count"
scalar ToyEVDoSScenario.rsu[0].wlan[0].mac.dcf.channelAccess.contention channelAccessGranted:count 0
attr title "channel access granted, count"
scalar ToyEVDoSScenario.rsu[0].wlan[0].mac.dcf.channelAccess channelOwnershipChanged:count 0
attr interpolationmode sample-hold
attr title "channel ownership, count"
scalar ToyEVDoSScenario.rsu[0].wlan[0].mac.dcf.originatorMacDataService packetAggregated:count 0
attr title "packets aggregated, count"
[...]
attr title "packets sent: with retry, count"
scalar ToyEVDoSScenario.ev[1].wlan[0].mac.dcf packetSentToPeerWithRetry:sum(packetBytes) 0
attr interpolationmode none
attr source ieee80211Retry(packetSentToPeer)
attr title "packets sent: with retry, sum(packetBytes)"
scalar ToyEVDoSScenario.ev[1].wlan[0].mac.dcf packetSentToPeerWithoutRetry:count 486
attr interpolationmode none
attr source ieee80211NotRetry(packetSentToPeer)
attr title "packets sent: without retry, count"
scalar ToyEVDoSScenario.ev[1].wlan[0].mac.dcf packetSentToPeerWithoutRetry:sum(packetBytes) 175397
attr interpolationmode none
attr source ieee80211NotRetry(packetSentToPeer)
attr title "packets sent: without retry, sum(packetBytes)"
scalar ToyEVDoSScenario.ev[1].wlan[0].mac.dcf packetDrop:count 0
attr interpolationmode none
attr source packetDropped
attr title "packet drops, count"
scalar ToyEVDoSScenario.ev[1].wlan[0].mac.dcf packetDrop:sum(packetBytes) 0
attr interpolationmode none
attr source packetDropped
attr title "packet drops, sum(packetBytes)"
scalar ToyEVDoSScenario.ev[1].wlan[0].mac.dcf packetDropNotAddressedToUs:count 0
attr interpolationmode none
attr source packetDropReasonIsNotAddressedToUs(packetDropped)
attr title "packet drops: not addressed to us, count"
scalar ToyEVDoSScenario.ev[1].wlan[0].mac.dcf packetDropNotAddressedToUs:sum(packetBytes) 0
attr interpolationmode none
attr source packetDropReasonIsNotAddressedToUs(packetDropped)
attr title "packet drops: not addressed to us, sum(packetBytes)"
scalar ToyEVDoSScenario.ev[1].wlan[0].mac.dcf packetDropQueueOverflow:count 0
attr interpolationmode none
attr source packetDropReasonIsQueueOverflow(packetDropped)
attr title "packet drops: queue overflow, count"
scalar ToyEVDoSScenario.ev[1].wlan[0].mac.dcf packetDropQueueOverflow:sum(packetBytes) 0
attr interpolationmode none
attr source packetDropReasonIsQueueOverflow(packetDropped)
attr title "packet drops: queue overflow, sum(packetBytes)"
scalar ToyEVDoSScenario.ev[1].wlan[0].mac.dcf packetDropRetryLimitReached:count 0
attr interpolationmode none
attr source packetDropReasonIsRetryLimitReached(packetDropped)
attr title "packet drops: retry limit reached, count"
scalar ToyEVDoSScenario.ev[1].wlan[0].mac.dcf packetDropRetryLimitReached:sum(packetBytes) 0
attr interpolationmode none
attr source packetDropReasonIsRetryLimitReached(packetDropped)
attr title "packet drops: retry limit reached, sum(packetBytes)"
scalar ToyEVDoSScenario.ev[1].wlan[0].mac.dcf linkBroken:count 0
attr interpolationmode none
attr title "link breaks, count"
scalar ToyEVDoSScenario.ev[1].wlan[0].mac.dcf frameSequenceFinished:count 486
attr title "finished frame sequences, count"
statistic ToyEVDoSScenario.ev[1].wlan[0].mac.dcf frameSequenceDuration:histogram
field count 486
field mean 0.00014914403292181
field stddev 1.9590651973147e-005
field min 6.6e-005
field max 0.000182
field sum 0.072484
field sqrsum 1.0996696e-005
attr source frameSequenceDuration(frameSequenceFinished)
attr title "frame sequence durations, histogram"
bin	-inf	0
bin	5.6e-005	0
bin	5.8e-005	0
bin	6e-005	0
bin	6.2e-005	0
bin	6.4e-005	0
bin	6.6e-005	1
bin	6.8e-005	0
bin	7e-005	0
bin	7.2e-005	0
bin	7.4e-005	0
bin	7.6e-005	0
bin	7.8e-005	0
bin	8e-005	2
bin	8.2e-005	0
bin	8.4e-005	0
bin	8.6e-005	0
bin	8.8e-005	0
bin	9e-005	0
bin	9.2e-005	0
bin	9.4e-005	0
bin	9.6e-005	0
bin	9.8e-005	0
bin	0.0001	0
bin	0.000102	0
bin	0.000104	0
bin	0.000106	0
bin	0.000108	0
bin	0.00011	0
bin	0.000112	0
bin	0.000114	0
bin	0.000116	19
bin	0.000118	0
bin	0.00012	25
bin	0.000122	0
bin	0.000124	33
bin	0.000126	0
bin	0.000128	33
bin	0.00013	0
bin	0.000132	0
bin	0.000134	21
bin	0.000136	40
bin	0.000138	0
bin	0.00014	32
bin	0.000142	0
bin	0.000144	31
bin	0.000146	0
bin	0.000148	38
bin	0.00015	0
bin	0.000152	0
bin	0.000154	29
bin	0.000156	26
bin	0.000158	0
bin	0.00016	28
bin	0.000162	0
bin	0.000164	22
bin	0.000166	0
bin	0.000168	29
bin	0.00017	0
bin	0.000172	24
bin	0.000174	0
bin	0.000176	26
bin	0.000178	0
bin	0.00018	27
bin	0.000182	0
bin	0.000184	0
bin	0.000186	0
bin	0.000188	0
bin	0.00019	0
bin	0.000192	0
bin	0.000194	0
bin	0.000196	0
bin	0.000198	0
bin	0.0002	0
bin	0.000202	0
bin	0.000204	0
bin	0.000206	0
bin	0.000208	0
statistic ToyEVDoSScenario.ev[1].wlan[0].mac.dcf frameSequenceNumPackets:histogram
field count 486
field mean 1
field stddev 0
field min 1
field max 1
field sum 486
field sqrsum 486
attr source frameSequenceNumPackets(frameSequenceFinished)
attr title "frame sequences: number of packets, histogram"
bin	-inf	0
bin	0	0
bin	1	486
bin	2	0
scalar ToyEVDoSScenario.ev[1].wlan[0].mac packetReceivedFromLower:count 769
attr interpolationmode none
attr title "packets received from lower layer, count"
scalar ToyEVDoSScenario.ev[1].wlan[0].mac packetReceivedFromLower:sum(packetBytes) 660747
attr interpolationmode none
attr title "packets received from lower layer, sum(packetBytes)"
scalar ToyEVDoSScenario.ev[1].wlan[0].mac packetSentToLower:count 486
attr interpolationmode none
attr title "packets sent to lower layer, count"
scalar ToyEVDoSScenario.ev[1].wlan[0].mac packetSentToLower:sum(packetBytes) 175397
attr interpolationmode none
attr title "packets sent to lower layer, sum(packetBytes)"
scalar ToyEVDoSScenario.ev[1].wlan[0].mac packetReceivedFromUpper:count 486
attr interpolationmode none
attr title "packets received from upper layer, count"
scalar ToyEVDoSScenario.ev[1].wlan[0].mac packetReceivedFromUpper:sum(packetBytes) 161789
attr interpolationmode none
attr title "packets received from upper layer, sum(packetBytes)"
scalar ToyEVDoSScenario.ev[1].wlan[0].mac packetSentToUpper:count 729
attr interpolationmode none
attr title "packets sent to upper layer, count"
scalar ToyEVDoSScenario.ev[1].wlan[0].mac packetSentToUpper:sum(packetBytes) 639215
attr interpolationmode none
attr title "packets sent to upper layer, sum(packetBytes)"
scalar ToyEVDoSScenario.ev[1].wlan[0].mac packetDrop:count 0
attr interpolationmode none
attr source packetDropped
attr title "packet drops, count"
scalar ToyEVDoSScenario.ev[1].wlan[0].mac packetDrop:sum(packetBytes) 0
attr interpolationmode none
attr source packetDropped
attr title "packet drops, sum(packetBytes)"
scalar ToyEVDoSScenario.ev[1].wlan[0].mac packetDropIncorrectlyReceived:count 0
attr interpolationmode none
attr source packetDropReasonIsIncorrectlyReceived(packetDropped)
attr title "packet drops: incorrectly received, count"
scalar ToyEVDoSScenario.ev[1].wlan[0].mac packetDropIncorrectlyReceived:sum(packetBytes) 0
attr interpolationmode none
attr source packetDropReasonIsIncorrectlyReceived(packetDropped)
attr title "packet drops: incorrectly received, sum(packetBytes)"
scalar ToyEVDoSScenario.ev[1].wlan[0].mac packetDropNotAddressedToUs:count 0
attr interpolationmode none
attr source packetDropReasonIsNotAddressedToUs(packetDropped)
attr title "packet drops: not addressed to us, count"
scalar ToyEVDoSScenario.ev[1].wlan[0].mac packetDropNotAddressedToUs:sum(packetBytes) 0
attr interpolationmode none
attr source packetDropReasonIsNotAddressedToUs(packetDropped)
attr title "packet drops: not addressed to us, sum(packetBytes)"
scalar ToyEVDoSScenario.ev[1].wlan[0].mac packetDropQueueOverflow:count 0
attr interpolationmode none
attr source packetDropReasonIsQueueOverflow(packetDropped)
attr title "packet drops: queue overflow, count"
scalar ToyEVDoSScenario.ev[1].wlan[0].mac packetDropQueueOverflow:sum(packetBytes) 0
attr interpolationmode none
attr source packetDropReasonIsQueueOverflow(packetDropped)
attr title "packet drops: queue overflow, sum(packetBytes)"
scalar ToyEVDoSScenario.ev[1].wlan[0].mac packetDropRetryLimitReached:count 0
attr interpolationmode none
attr source packetDropReasonIsRetryLimitReached(packetDropped)
attr title "packet drops: retry limit reached, count"
scalar ToyEVDoSScenario.ev[1].wlan[0].mac packetDropRetryLimitReached:sum(packetBytes) 0
attr interpolationmode none
attr source packetDropReasonIsRetryLimitReached(packetDropped)
attr title "packet drops: retry limit reached, sum(packetBytes)"
scalar ToyEVDoSScenario.ev[1].wlan[0].mac packetDropDuplicateDetected:count 0
attr interpolationmode none
attr source packetDropReasonIsDuplicateDetected(packetDropped)
attr title "packet drops: duplicate detected, count"
scalar ToyEVDoSScenario.ev[1].wlan[0].mac packetDropDuplicateDetected:sum(packetBytes) 0
attr interpolationmode none
attr source packetDropReasonIsDuplicateDetected(packetDropped)
attr title "packet drops: duplicate detected, sum(packetBytes)"
scalar ToyEVDoSScenario.ev[1].wlan[0].mac packetDropOther:count 0
attr interpolationmode none
attr source packetDropReasonIsOther(packetDropped)
attr title "packet drops: other, count"
scalar ToyEVDoSScenario.ev[1].wlan[0].mac packetDropOther:sum(packetBytes) 0
attr interpolationmode none
attr source packetDropReasonIsOther(packetDropped)
attr title "packet drops: other, sum(packetBytes)"
scalar ToyEVDoSScenario.ev[1].wlan[0].mac linkBroken:count 0
attr interpolationmode none
attr title "link breaks, count"
statistic ToyEVDoSScenario.ev[1].wlan[0].radio minSnir:histogram
field count 769
field mean 6970.0330975355
field stddev 2269.6509604425
field min 710.05502713052
field max 59841.970642471
field sum 5359955.4520048
field sqrsum 41315277192.148
attr source minimumSnir(packetSentToUpper)
attr title "Min SNIR, histogram"
bin	-inf	0
bin	0	1
bin	1000	0
bin	2000	0
bin	3000	0
bin	4000	0
bin	5000	0
bin	6000	662
bin	7000	98
bin	8000	1
bin	9000	1
bin	10000	0
bin	11000	1
bin	12000	1
bin	13000	0
bin	14000	0
bin	15000	0
bin	16000	1
bin	17000	0
bin	18000	0
bin	19000	0
bin	20000	0
bin	21000	0
bin	22000	0
bin	23000	1
bin	24000	0
bin	25000	0
bin	26000	0
bin	27000	0
bin	28000	0
bin	29000	0
bin	30000	0
bin	31000	0
bin	32000	1
bin	33000	0
bin	34000	0
bin	35000	0
bin	36000	0
bin	37000	0
bin	38000	0
bin	39000	0
bin	40000	0
bin	41000	0
bin	42000	0
bin	43000	0
bin	44000	0
bin	45000	0
bin	46000	0
bin	47000	0
bin	48000	0
bin	49000	0
bin	50000	0
bin	51000	0
bin	52000	0
bin	53000	0
bin	54000	0
bin	55000	0
bin	56000	0
bin	57000	0
bin	58000	0
bin	59000	1
bin	60000	0
statistic ToyEVDoSScenario.ev[1].wlan[0].radio packetErrorRate:histogram
field count 769
field mean 0
field stddev 0
field min 0
field max 0
field sum 0
field sqrsum 0
attr source packetErrorRate(packetSentToUpper)
attr title "Packet error rate, histogram"
bin	-inf	0
bin	-0.5	0
bin	-0.48	0
bin	-0.46	0
bin	-0.44	0
bin	-0.42	0
bin	-0.4	0
bin	-0.38	0
bin	-0.36	0
bin	-0.34	0
bin	-0.32	0
bin	-0.3	0
bin	-0.28	0
bin	-0.26	0
bin	-0.24	0
bin	-0.22	0
bin	-0.2	0
bin	-0.18	0
bin	-0.16	0
bin	-0.14	0
bin	-0.12	0
bin	-0.1	0
bin	-0.08	0
bin	-0.06	0
bin	-0.04	0
bin	-0.02	0
bin	0	769
bin	0.02	0
bin	0.04	0
bin	0.06	0
bin	0.08	0
bin	0.1	0
bin	0.12	0
bin	0.14	0
bin	0.16	0
bin	0.18	0
bin	0.2	0
bin	0.22	0
bin	0.24	0
bin	0.26	0
bin	0.28	0
bin	0.3	0
bin	0.32	0
bin	0.34	0
bin	0.36	0
bin	0.38	0
bin	0.4	0
bin	0.42	0
bin	0.44	0
bin	0.46	0
bin	0.48	0
bin	0.5	0
statistic ToyEVDoSScenario.ev[1].wlan[0].radio bitErrorRate:histogram
field count 0
field mean nan
field stddev nan
field min nan
field max nan
field sum 0
field sqrsum 0
attr source bitErrorRate(packetSentToUpper)
attr title "Bit error rate, histogram"
bin	-inf	0
bin	0	0
bin	1	0
statistic ToyEVDoSScenario.ev[1].wlan[0].radio symbolErrorRate:histogram
field count 0
field mean nan
field stddev nan
field min nan
field max nan
field sum 0
field sqrsum 0
attr source symbolErrorRate(packetSentToUpper)
attr title "Symbol error rate, histogram"
bin	-inf	0
bin	0	0
bin	1	0
scalar ToyEVDoSScenario.ev[1].wlan[0].radio transmissionState:count 1944
attr interpolationmode sample-hold
attr source transmissionStateChanged
attr title "Radio transmission state, count"
scalar ToyEVDoSScenario.ev[1].wlan[0].radio receptionState:count 2511
attr interpolationmode sample-hold
attr source receptionStateChanged
attr title "Radio reception state, count"
scalar ToyEVDoSScenario.ev[1].wlan[0].radio radioMode:count 975
attr interpolationmode sample-hold
attr source radioModeChanged
attr title "Radio mode, count"
statistic ToyEVDoSScenario.ev[1].wlan[0].radio radioChannel:histogram
field count 1
field mean 3
field stddev nan
field min 3
field max 3
field sum 3
field sqrsum 9
attr interpolationmode sample-hold
attr source radioChannelChanged
attr title "Radio channel, histogram"
bin	-inf	0
bin	2	0
bin	3	1
bin	4	0
scalar ToyEVDoSScenario.ev[1].ipv4.ip packetDropAddressResolutionFailed:count 0
attr interpolationmode none
attr source packetDropReasonIsAddressResolutionFailed(packetDropped)
attr title "packet drop: address resolution failed, count"
scalar ToyEVDoSScenario.ev[1].ipv4.ip packetDropAddressResolutionFailed:sum(packetBytes) 0
attr interpolationmode none
attr source packetDropReasonIsAddressResolutionFailed(packetDropped)
attr title "packet drop: address resolution failed, sum(packetBytes)"
scalar ToyEVDoSScenario.ev[1].ipv4.ip packetDropHopLimitReached:count 0
attr interpolationmode none
attr source packetDropReasonIsHopLimitReached(packetDropped)
attr title "packet drop: hop limit reached, count"
scalar ToyEVDoSScenario.ev[1].ipv4.ip packetDropHopLimitReached:sum(packetBytes) 0
attr interpolationmode none
attr source packetDropReasonIsHopLimitReached(packetDropped)
attr title "packet drop: hop limit reached, sum(packetBytes)"
scalar ToyEVDoSScenario.ev[1].ipv4.ip packetDropForwardingDisabled:count 0
attr interpolationmode none
attr source packetDropReasonIsForwardingDisabled(packetDropped)
attr title "packet drop: forwarding disabled, count"
scalar ToyEVDoSScenario.ev[1].ipv4.ip packetDropForwardingDisabled:sum(packetBytes) 0
attr interpolationmode none
attr source packetDropReasonIsForwardingDisabled(packetDropped)
attr title "packet drop: forwarding disabled, sum(packetBytes)"
scalar ToyEVDoSScenario.ev[1].ipv4.ip packetDropNoInterfaceFound:count 0
attr interpolationmode none
attr source packetDropReasonIsNoInterfaceFound(packetDropped)
attr title "packet drop: no interface found, count"
scalar ToyEVDoSScenario.ev[1].ipv4.ip packetDropNoInterfaceFound:sum(packetBytes) 0
attr interpolationmode none
attr source packetDropReasonIsNoInterfaceFound(packetDropped)
attr title "packet drop: no interface found, sum(packetBytes)"
scalar ToyEVDoSScenario.ev[1].ipv4.ip packetDropNoRouteFound:count 0
attr interpolationmode none
attr source packetDropReasonIsNoRouteFound(packetDropped)
attr title "packet drop: no route found, count"
scalar ToyEVDoSScenario.ev[1].ipv4.ip packetDropNoRouteFound:sum(packetBytes) 0
attr interpolationmode none
attr source packetDropReasonIsNoRouteFound(packetDropped)
attr title "packet drop: no route found, sum(packetBytes)"
scalar ToyEVDoSScenario.ev[1].ipv4.ip packetDropUndefined:count 0
attr interpolationmode none
attr source packetDropReasonIsUndefined(packetDropped)
attr title "packet drop: undefined, count"
scalar ToyEVDoSScenario.ev[1].ipv4.ip packetDropUndefined:sum(packetBytes) 0
attr interpolationmode none
attr source packetDropReasonIsUndefined(packetDropped)
attr title "packet drop: undefined, sum(packetBytes)"
scalar ToyEVDoSScenario.ev[1].ipv4.arp arpReplySent:count 0
attr source arpReplySent
attr title "ARP replies sent, count"
scalar ToyEVDoSScenario.ev[1].ipv4.arp arpReplySent:sum(packetBytes) 0
attr source arpReplySent
attr title "ARP replies sent, sum(packetBytes)"
scalar ToyEVDoSScenario.ev[1].ipv4.arp arpRequestSent:count 0
attr source arpRequestSent
attr title "ARP request sent, count"
scalar ToyEVDoSScenario.ev[1].ipv4.arp arpRequestSent:sum(packetBytes) 0
attr source arpRequestSent
attr title "ARP request sent, sum(packetBytes)"
scalar ToyEVDoSScenario.ev[1].ipv4.arp arpResolutionFailed:count 0
attr title "ARP failed resolutions, count"
scalar ToyEVDoSScenario.ev[1].ipv4.arp arpResolutionCompleted:count 0
attr title "ARP completed resolutions, count"
scalar ToyEVDoSScenario.ev[1].ipv4.arp arpResolutionInitiated:count 0
attr title "ARP initiated resolutions, count"
scalar ToyEVDoSScenario.ev[1].udp packetReceived:count 1215
attr interpolationmode none
attr source packetReceived
attr title "packets received, count"
scalar ToyEVDoSScenario.ev[1].udp packetReceived:sum(packetBytes) 766984
attr interpolationmode none
attr source packetReceived
attr title "packets received, sum(packetBytes)"
scalar ToyEVDoSScenario.ev[1].udp packetSent:count 486
attr interpolationmode none
attr source packetSent
attr title "packets sent, count"
scalar ToyEVDoSScenario.ev[1].udp packetSent:sum(packetBytes) 148181
attr interpolationmode none
attr source packetSent
attr title "packets sent, sum(packetBytes)"
scalar ToyEVDoSScenario.ev[1].udp passedUpPk:count 1215
attr interpolationmode none
attr source packetSentToUpper
attr title "packets passed up, count"
scalar ToyEVDoSScenario.ev[1].udp droppedPkWrongPort:count 0
attr interpolationmode none
attr source packetDropReasonIsNoPortFound(packetDropped)
attr title "packets dropped (wrong port), count"
scalar ToyEVDoSScenario.ev[1].udp droppedPkBadChecksum:count 0
attr interpolationmode none
attr source packetDropReasonIsIncorrectlyReceived(packetDropped)
attr title "packets dropped (checksum error), count"
scalar ToyEVDoSScenario.ev[1].app[0] packetsSent 486
scalar ToyEVDoSScenario.ev[1].app[0] packetsReceived 22
scalar ToyEVDoSScenario.ev[1].app[0] totalEnergyConsumed 203.37494169878
scalar ToyEVDoSScenario.ev[1].app[0] finalBatteryWh 91.386438765679
scalar ToyEVDoSScenario.ev[1].app[0] finalSoC 0.4569321938284
scalar ToyEVDoSScenario.ev[1].app[0] totalBytesSent 144293
scalar ToyEVDoSScenario.ev[1].app[0] totalBytesReceived 6240
scalar ToyEVDoSScenario.ev[1].app[0] packetSendRate 1.62
scalar ToyEVDoSScenario.ev[1].app[0] packetRecvRate 0.073333333333333
scalar ToyEVDoSScenario.ev[1].app[0] attackDurationParam 60
scalar ToyEVDoSScenario.ev[1].app[0] isAttackerParam 0
statistic ToyEVDoSScenario.ev[1].app[0] senderSpeed:stats
field count 22
field mean 10.239814302378
field stddev 4.1507917922724
field min 1.465505243273
field max 13.886758434731
field sum 225.27591465232
field sqrsum 2668.5940553969
statistic ToyEVDoSScenario.ev[1].app[0] soc:stats
field count 794
field mean 0.51022917635034
field stddev 0.25893981375742
field min 0.11113849214788
field max 1
field sum 405.12196602217
field sqrsum 259.87555997386
attr title "State of Charge, stats"
statistic ToyEVDoSScenario.ev[1].app[0] batteryLevel:stats
field count 794
field mean 102.04583527007
field stddev 51.787962751484
field min 22.227698429576
field max 200
field sum 81024.393204434
field sqrsum 10395022.398954
statistic ToyEVDoSScenario.ev[1].app[0] txDuration:stats
field count 22
field mean 0.00037818181818182
field stddev 0.00011804154623609
field min 0.00013333333333333
field max 0.00051466666666667
field sum 0.00832
field sqrsum 3.4390826666667e-006
statistic ToyEVDoSScenario.ev[1].app[0] energyConsumption:stats
field count 505
field mean 1.0636107597589e-008
field stddev 3.1369757305385e-009
field min 3.2789363125684e-010
field max 1.7389100193481e-008
field sum 5.3712343367825e-006
field sqrsum 6.2088697171813e-014
statistic ToyEVDoSScenario.ev[1].app[0] interArrivalTime:stats
field count 505
field mean 1.1281767984762
field stddev 10.678626285284
field min 0.201425614581
field max 239.99971872213
field sum 569.72928323049
field sqrsum 58115.417266491
statistic ToyEVDoSScenario.ev[1].app[0] packetSize:stats
field count 505
field mean 297.5900990099
field stddev 58.130534392521
field min 100
field max 400
field sum 150283
field sqrsum 46425829
scalar ToyEVDoSScenario.ev[1].app[0] packetReceived:count 22
attr interpolationmode none
attr source packetReceived
attr title "packets received, count"
scalar ToyEVDoSScenario.ev[1].app[0] packetReceived:sum 22
attr interpolationmode none
attr source packetReceived
attr title "packets received, sum"
scalar ToyEVDoSScenario.ev[1].app[0] packetSent:count 483
attr interpolationmode none
attr source packetSent
attr title "packets sent, count"
scalar ToyEVDoSScenario.ev[1].app[0] packetSent:sum 117660
attr interpolationmode none
attr source packetSent
attr title "packets sent, sum"

