version 2
run Toy_DoS-0-20260220-11:47:38-10516
attr configname Toy_DoS
attr datetime 20260220-11:47:38
attr experiment Toy_DoS
attr inifile omnetpp.ini
attr iterationvars ""
attr iterationvarsf ""
attr measurement ""
attr network ToyEVDoSScenario
attr processid 10516
attr repetition 0
attr replication #0
attr resultdir results
attr runnumber 0
attr seedset 0
param *.ev[*].app[0].energyPerMeter 0.1Wh
param *.cs[*].app[0].maxPktPerSecond 50
param *.rsu[*].app[0].maxPktPerSecond 50
param *.ev[0].app[0].isAttacker true
param *.ev[0].app[0].targetType "\"CS\""
param *.ev[0].app[0].targetAddress "\"cs[0]\""
param *.ev[0].app[0].attackStartTime 15s
param *.ev[0].app[0].attackDuration 60s
param *.ev[0].app[0].packetInterval 0.01s
param *.ev[0].app[0].packetSize 1024B
param *.ev[0].app[0].sumoColor "\"red\""
param *.radioMedium.neighborCache.typename "\"GridNeighborCache\""
param *.radioMedium.neighborCache.cellSizeX 300m
param *.radioMedium.neighborCache.cellSizeY 300m
param *.radioMedium.neighborCache.cellSizeZ 100m
param *.radioMedium.pathLoss.typename "\"FreeSpacePathLoss\""
param *.veinsManager.firstStepAt 0s
param *.veinsManager.roiRects "\"\""
param *.veinsManager.moduleType "\"evattack.veins_inet.VeinsInetEVChargingCar\""
param *.veinsManager.moduleName "\"ev\""
param *.ev[*].numApps 1
param *.ev[*].app[0].typename "\"VeinsInetEVChargingApp\""
param *.ev[*].app[0].interface "\"wlan0\""
param *.ev[*].app[0].interfaceTableModule "\"^.interfaceTable\""
param *.ev[*].mobility.typename "\"VeinsInetMobility\""
param *.ev[*].ipv4.configurator.typename "\"HostAutoConfigurator\""
param *.ev[*].ipv4.configurator.interfaces "\"wlan0\""
param *.ev[*].wlan[0].typename "\"Ieee80211Interface\""
param *.ev[*].wlan[0].radio.typename "\"Ieee80211ScalarRadio\""
param *.ev[*].wlan[0].radio.bandName "\"5.9 GHz\""
param *.ev[*].wlan[0].radio.channelNumber 3
param *.ev[*].wlan[0].radio.transmitter.power 20mW
param *.ev[*].wlan[0].radio.receiver.sensitivity -89dBm
param *.ev[*].wlan[0].radio.receiver.snirThreshold 4dB
param *.ev[*].wlan[0].mgmt.typename "\"Ieee80211MgmtAdhoc\""
param *.ev[*].wlan[0].mac.dcf.channelAccess.cwMin 15
param *.ev[*].wlan[0].mac.dcf.channelAccess.cwMax 1023
param *.ev[*].wlan[0].radio.displayCommunicationRange true
param *.ev[*].app[0].batteryCapacity 200Wh
param *.ev[*].app[0].initialSoC 0.8
param *.ev[*].app[0].energyPerMeter 0.05Wh
param *.ev[*].app[0].chargingPowerW 7200W
param *.ev[*].app[0].socThreshold 0.2
param *.ev[*].app[0].chargingRange 300m
param *.ev[*].app[0].physicalChargingRange 15m
param *.ev[*].app[0].csEdgeId "\"B1B2\""
param *.ev[*].app[0].destinations "\"\""
param *.ev[*].app[0].isAttacker false
param *.ev[*].app[0].maxPktPerSecond 0
param *.cs[*].app[0].maxPktPerSecond 0
param *.rsu[*].app[0].maxPktPerSecond 0
param *.ev[*].app[0].sumoColor "\"yellow\""
param *.cs[*].numApps 1
param *.cs[*].app[0].typename "\"VeinsInetCSChargingApp\""
param *.cs[*].app[0].interfaceTableModule "\"^.interfaceTable\""
param *.cs[*].app[0].maxSlots 1
param *.cs[*].app[0].csBatteryCapacity 50000Wh
param *.cs[*].app[0].initialCSSoC 1.0
param *.cs[*].app[0].chargingPowerW 7200W
param *.cs[*].app[0].gridRechargePowerW 10000W
param *.cs[*].ipv4.configurator.typename "\"HostAutoConfigurator\""
param *.cs[*].ipv4.configurator.interfaces "\"wlan0\""
param *.cs[*].mobility.initFromDisplayString false
param *.cs[*].numWlanInterfaces 1
param *.cs[*].wlan[0].typename "\"Ieee80211Interface\""
param *.cs[*].wlan[0].radio.typename "\"Ieee80211ScalarRadio\""
param *.cs[*].wlan[0].radio.bandName "\"5.9 GHz\""
param *.cs[*].wlan[0].radio.channelNumber 3
param *.cs[*].wlan[0].radio.transmitter.power 20mW
param *.cs[*].wlan[0].radio.receiver.sensitivity -89dBm
param *.cs[*].wlan[0].mgmt.typename "\"Ieee80211MgmtAdhoc\""
param *.cs[*].wlan[0].mac.dcf.channelAccess.cwMin 15
param *.cs[*].wlan[0].mac.dcf.channelAccess.cwMax 1023
param *.cs[*].wlan[0].radio.displayCommunicationRange true
param *.rsu[*].numApps 1
param *.rsu[*].app[0].typename "\"VeinsInetReceiverApp\""
param *.rsu[*].ipv4.configurator.typename "\"HostAutoConfigurator\""
param *.rsu[*].ipv4.configurator.interfaces "\"wlan0\""
param *.rsu[*].mobility.initFromDisplayString false
param *.rsu[*].numWlanInterfaces 1
param *.rsu[*].wlan[0].typename "\"Ieee80211Interface\""
param *.rsu[*].wlan[0].radio.typename "\"Ieee80211ScalarRadio\""
param *.rsu[*].wlan[0].radio.bandName "\"5.9 GHz\""
param *.rsu[*].wlan[0].radio.channelNumber 3
param *.rsu[*].wlan[0].radio.transmitter.power 200mW
param *.rsu[*].wlan[0].radio.receiver.sensitivity -89dBm
param *.rsu[*].wlan[0].mgmt.typename "\"Ieee80211MgmtAdhoc\""
param *.rsu[*].wlan[0].mac.dcf.channelAccess.cwMin 15
param *.rsu[*].wlan[0].mac.dcf.channelAccess.cwMax 1023
param *.rsu[*].wlan[0].radio.displayCommunicationRange true
param **.constraintAreaMinX -10m
param **.constraintAreaMinY -10m
param **.constraintAreaMinZ 0m
param **.constraintAreaMaxX 500m
param **.constraintAreaMaxY 500m
param **.constraintAreaMaxZ 100m
param *.veinsManager.launchConfig "xmldoc(\"toy.launchd.xml\")"
param *.ev[*].app[0].destinations "\"C2C1 A2B2 C0B0 A0B0\""
param *.cs[0].mobility.typename "\"StationaryMobility\""
param *.cs[0].mobility.initialX 200m
param *.cs[0].mobility.initialY 200m
param *.cs[0].mobility.initialZ 0m
param *.rsu[0].mobility.typename "\"StationaryMobility\""
param *.rsu[0].mobility.initialX 200m
param *.rsu[0].mobility.initialY 300m
param *.rsu[0].mobility.initialZ 10m
param *.visualizer.typename "\"IntegratedCanvasVisualizer\""
param *.visualizer.*.displayDefaults false
param *.veinsManager.seed 0
param **.constraintAreaMinX 0m
param **.constraintAreaMinY 0m
param **.constraintAreaMinZ 0m
param **.constraintAreaMaxX 13640m
param **.constraintAreaMaxY 11500m
param **.constraintAreaMaxZ 50m
param *.visualizer.*.mobilityVisualizer.displayMobility false
param *.visualizer.*.mobilityVisualizer.displayPositions false
param *.visualizer.*.mediumVisualizer.displaySignals false
param *.visualizer.*.mediumVisualizer.displayTransmissions false
param *.visualizer.*.mediumVisualizer.displayReceptions false
param *.visualizer.*.dataLinkVisualizer.displayLinks false
param *.visualizer.*.networkRouteVisualizer.displayRoutes false
param *.visualizer.*.interfaceTableVisualizer.displayInterfaceTables false
param *.visualizer.*.packetDropVisualizer.displayPacketDrops false
param *.veinsManager.updateInterval 0.1s
param *.veinsManager.host "\"localhost\""
param *.veinsManager.port 9999
param *.veinsManager.autoShutdown true
param *.veinsManager.launchConfig "xmldoc(\"luxembourg.launchd.xml\")"
param *.veinsManager.moduleType "\"evattack.veins_inet.VeinsInetEVCar\""
param *.veinsManager.moduleName "\"ev\""
param *.veinsManager.roiRects "\"2300,5400-6300,6300\""
param *.veinsManager.firstStepAt 7h
param *.configurator.config "xmldoc(\"config.xml\")"
param *.configurator.addStaticRoutes false
param *.configurator.addDefaultRoutes false
param *.configurator.addSubnetRoutes false
param *.configurator.addDirectRoutes false
param *.configurator.optimizeRoutes false
param *.radioMedium.mediumLimitCache.carrierFrequency 5.9GHz
param *.radioMedium.pathLoss.typename "\"TwoRayInterference\""
param *.radioMedium.mediumLimitCache.maxCommunicationRange 500m
param *.radioMedium.mediumLimitCache.maxInterferenceRange 750m
param *.ev[*].numApps 1
param *.ev[*].app[0].typename "\"VeinsInetEVDoSApplication\""
param *.ev[*].app[0].interfaceTableModule "\"^.interfaceTable\""
param *.ev[*].app[0].interface "\"wlan0\""
param *.ev[*].mobility.typename "\"VeinsInetMobility\""
param *.ev[*].ipv4.configurator.typename "\"HostAutoConfigurator\""
param *.ev[*].ipv4.configurator.interfaces "\"wlan0\""
param *.ev[*].wlan[0].typename "\"Ieee80211Interface\""
param *.ev[*].wlan[0].radio.typename "\"Ieee80211ScalarRadio\""
param *.ev[*].wlan[0].radio.bandName "\"5.9 GHz\""
param *.ev[*].wlan[0].radio.channelNumber 3
param *.ev[*].wlan[0].radio.transmitter.power 20mW
param *.ev[*].wlan[0].radio.receiver.sensitivity -89dBm
param *.ev[*].wlan[0].radio.receiver.snirThreshold 4dB
param *.ev[*].wlan[0].mgmt.typename "\"Ieee80211MgmtAdhoc\""
param *.ev[*].wlan[0].mac.dcf.channelAccess.cwMin 15
param *.ev[*].wlan[0].mac.dcf.channelAccess.cwMax 1023
param *.ev[*].wlan[0].radio.displayCommunicationRange false
param *.ev[*].app[0].isAttacker false
param *.cs[*].numApps 1
param *.cs[*].app[0].typename "\"VeinsInetReceiverApp\""
param *.cs[*].ipv4.configurator.typename "\"HostAutoConfigurator\""
param *.cs[*].ipv4.configurator.interfaces "\"wlan0\""
param *.cs[*].mobility.initFromDisplayString false
param *.cs[0].mobility.typename "\"StationaryMobility\""
param *.cs[0].mobility.initialX 3200m
param *.cs[0].mobility.initialY 5700m
param *.cs[0].mobility.initialZ 0m
param *.cs[1].mobility.typename "\"StationaryMobility\""
param *.cs[1].mobility.initialX 4500m
param *.cs[1].mobility.initialY 5900m
param *.cs[1].mobility.initialZ 0m
param *.cs[2].mobility.typename "\"StationaryMobility\""
param *.cs[2].mobility.initialX 5800m
param *.cs[2].mobility.initialY 5600m
param *.cs[2].mobility.initialZ 0m
param *.cs[*].numWlanInterfaces 1
param *.cs[*].wlan[0].typename "\"Ieee80211Interface\""
param *.cs[*].wlan[0].radio.typename "\"Ieee80211ScalarRadio\""
param *.cs[*].wlan[0].radio.bandName "\"5.9 GHz\""
param *.cs[*].wlan[0].radio.channelNumber 3
param *.cs[*].wlan[0].radio.transmitter.power 20mW
param *.cs[*].wlan[0].radio.receiver.sensitivity -89dBm
param *.cs[*].wlan[0].mgmt.typename "\"Ieee80211MgmtAdhoc\""
param *.cs[*].wlan[0].mac.dcf.channelAccess.cwMin 15
param *.cs[*].wlan[0].mac.dcf.channelAccess.cwMax 1023
param *.cs[*].wlan[0].radio.displayCommunicationRange false
param *.rsu[*].numApps 1
param *.rsu[*].app[0].typename "\"VeinsInetReceiverApp\""
param *.rsu[*].ipv4.configurator.typename "\"HostAutoConfigurator\""
param *.rsu[*].ipv4.configurator.interfaces "\"wlan0\""
param *.rsu[*].mobility.initFromDisplayString false
param *.rsu[0].mobility.typename "\"StationaryMobility\""
param *.rsu[0].mobility.initialX 2800m
param *.rsu[0].mobility.initialY 5500m
param *.rsu[0].mobility.initialZ 10m
param *.rsu[1].mobility.typename "\"StationaryMobility\""
param *.rsu[1].mobility.initialX 3800m
param *.rsu[1].mobility.initialY 5800m
param *.rsu[1].mobility.initialZ 10m
param *.rsu[2].mobility.typename "\"StationaryMobility\""
param *.rsu[2].mobility.initialX 4800m
param *.rsu[2].mobility.initialY 6000m
param *.rsu[2].mobility.initialZ 10m
param *.rsu[3].mobility.typename "\"StationaryMobility\""
param *.rsu[3].mobility.initialX 5500m
param *.rsu[3].mobility.initialY 5800m
param *.rsu[3].mobility.initialZ 10m
param *.rsu[4].mobility.typename "\"StationaryMobility\""
param *.rsu[4].mobility.initialX 6000m
param *.rsu[4].mobility.initialY 6100m
param *.rsu[4].mobility.initialZ 10m
param *.rsu[*].numWlanInterfaces 1
param *.rsu[*].wlan[0].typename "\"Ieee80211Interface\""
param *.rsu[*].wlan[0].radio.typename "\"Ieee80211ScalarRadio\""
param *.rsu[*].wlan[0].radio.bandName "\"5.9 GHz\""
param *.rsu[*].wlan[0].radio.channelNumber 3
param *.rsu[*].wlan[0].radio.transmitter.power 200mW
param *.rsu[*].wlan[0].radio.receiver.sensitivity -89dBm
param *.rsu[*].wlan[0].mgmt.typename "\"Ieee80211MgmtAdhoc\""
param *.rsu[*].wlan[0].mac.dcf.channelAccess.cwMin 15
param *.rsu[*].wlan[0].mac.dcf.channelAccess.cwMax 1023
param *.rsu[*].wlan[0].radio.displayCommunicationRange false

vector 0 ToyEVDoSScenario.cs[0].wlan[0].radio radioMode:vector ETV
attr interpolationmode sample-hold
attr source radioModeChanged
attr title "Radio mode, vector"
vector 1 ToyEVDoSScenario.cs[0].wlan[0].radio radioChannel:vector ETV
attr interpolationmode sample-hold
attr source radioChannelChanged
attr title "Radio channel, vector"
vector 2 ToyEVDoSScenario.rsu[0].wlan[0].radio radioMode:vector ETV
attr interpolationmode sample-hold
attr source radioModeChanged
attr title "Radio mode, vector"
vector 3 ToyEVDoSScenario.rsu[0].wlan[0].radio radioChannel:vector ETV
attr interpolationmode sample-hold
attr source radioChannelChanged
attr title "Radio channel, vector"
vector 4 ToyEVDoSScenario.cs[0].wlan[0].radio receptionState:vector ETV
attr interpolationmode sample-hold
attr source receptionStateChanged
attr title "Radio reception state, vector"
vector 5 ToyEVDoSScenario.rsu[0].wlan[0].radio receptionState:vector ETV
attr interpolationmode sample-hold
attr source receptionStateChanged
attr title "Radio reception state, vector"
vector 6 ToyEVDoSScenario.cs[0].wlan[0].mac.dcf.recoveryProcedure contentionWindowChanged:vector ETV
attr interpolationmode sample-hold
attr title "contention window, vector"
vector 7 ToyEVDoSScenario.rsu[0].wlan[0].mac.dcf.recoveryProcedure contentionWindowChanged:vector ETV
attr interpolationmode sample-hold
attr title "contention window, vector"
vector 8 ToyEVDoSScenario.ev[0].wlan[0].radio radioMode:vector ETV
attr interpolationmode sample-hold
attr source radioModeChanged
attr title "Radio mode, vector"
vector 9 ToyEVDoSScenario.ev[0].wlan[0].radio radioChannel:vector ETV
attr interpolationmode sample-hold
attr source radioChannelChanged
attr title "Radio channel, vector"
vector 10 ToyEVDoSScenario.ev[0].wlan[0].radio receptionState:vector ETV
attr interpolationmode sample-hold
attr source receptionStateChanged
attr title "Radio reception state, vector"
vector 11 ToyEVDoSScenario.ev[0].wlan[0].mac.dcf.recoveryProcedure contentionWindowChanged:vector ETV
attr interpolationmode sample-hold
attr title "contention window, vector"
vector 12 ToyEVDoSScenario.ev[0].app[0] batteryLevel:vector ETV
vector 13 ToyEVDoSScenario.ev[0].app[0] soc:vector ETV
attr title "State of Charge, vector"
vector 14 ToyEVDoSScenario.ev[0].app[0] isCharging:vector ETV
vector 15 ToyEVDoSScenario.ev[0].app[0] packetSize:vector ETV
vector 16 ToyEVDoSScenario.ev[0].app[0] interArrivalTime:vector ETV
vector 17 ToyEVDoSScenario.ev[0].app[0] energyConsumption:vector ETV
vector 18 ToyEVDoSScenario.ev[0].app[0] packetSent:vector ETV
attr interpolationmode none
attr source packetSent
attr title "packets sent, vector"
vector 19 ToyEVDoSScenario.ev[0].udp packetSent:vector(packetBytes) ETV
attr interpolationmode none
attr source packetSent
attr title "packets sent, vector(packetBytes)"
vector 20 ToyEVDoSScenario.ev[0].lo[0].lo rcvdPkFromHl:vector(packetBytes) ETV
attr interpolationmode none
attr source packetReceivedFromUpper
attr title "packets received from higher layer, vector(packetBytes)"
vector 21 ToyEVDoSScenario.ev[0].lo[0].lo passedUpPk:vector(packetBytes) ETV
attr interpolationmode none
attr source packetSentToUpper
attr title "packets passed to higher layer, vector(packetBytes)"
vector 22 ToyEVDoSScenario.ev[0].wlan[0].mac packetReceivedFromUpper:vector(packetBytes) ETV
attr interpolationmode none
attr title "packets received from upper layer, vector(packetBytes)"
vector 23 ToyEVDoSScenario.ev[0].wlan[0].mac.dcf.channelAccess.pendingQueue packetPushed:vector(packetBytes) ETV
attr interpolationmode none
attr title "packet pushed, vector(packetBytes)"
vector 24 ToyEVDoSScenario.ev[0].wlan[0].mac.dcf.channelAccess.pendingQueue queueLength:vector ETV
attr interpolationmode sample-hold
attr source "count(packetPushed) - count(packetPopped) - count(packetRemoved) - count(packetDropped)"
attr title "queue length, vector"
vector 25 ToyEVDoSScenario.ev[0].wlan[0].mac.dcf.channelAccess.contention backoffPeriodGenerated:vector ETV
attr interpolationmode none
attr title "backoff periods, vector"
vector 26 ToyEVDoSScenario.ev[0].wlan[0].mac.dcf.channelAccess.contention backoffActive:vector ETV
attr interpolationmode sample-hold
attr source count(backoffStarted)-count(backoffStopped)
attr title "backoff active, vector"
vector 27 ToyEVDoSScenario.ev[0].udp packetReceived:vector(packetBytes) ETV
attr interpolationmode none
attr source packetReceived
attr title "packets received, vector(packetBytes)"
vector 28 ToyEVDoSScenario.ev[0].udp passedUpPk:vector(count) ETV
attr interpolationmode none
attr source packetSentToUpper
attr title "packets passed up, vector(count)"
vector 29 ToyEVDoSScenario.ev[0].wlan[0].mac.dcf.channelAccess.pendingQueue packetPopped:vector(packetBytes) ETV
attr interpolationmode none
attr title "packet popped, vector(packetBytes)"
vector 30 ToyEVDoSScenario.ev[0].wlan[0].mac.dcf.channelAccess.pendingQueue queueingTime:vector ETV
attr interpolationmode none
attr source queueingTime(packetPopped)
attr title "queueing times, vector"
attr unit s
vector 31 ToyEVDoSScenario.ev[0].wlan[0].mac.dcf.channelAccess.inProgressFrames queueLength:vector ETV
attr interpolationmode sample-hold
attr source "count(packetEnqueued) - count(packetDequeued)"
attr title "queue length, vector"
vector 32 ToyEVDoSScenario.ev[0].wlan[0].mac.dcf datarateSelected:vector ETV
attr interpolationmode none
attr title "datarates selected, vector"
vector 33 ToyEVDoSScenario.ev[0].wlan[0].mac packetSentToLower:vector(packetBytes) ETV
attr interpolationmode none
attr title "packets sent to lower layer, vector(packetBytes)"
vector 34 ToyEVDoSScenario.ev[0].wlan[0].mac.dcf frameSequenceActive:vector ETV
attr interpolationmode sample-hold
attr source count(frameSequenceStarted)-count(frameSequenceFinished)
attr title "frame sequence active, vector"
vector 35 ToyEVDoSScenario.ev[0].wlan[0].radio transmissionState:vector ETV
attr interpolationmode sample-hold
attr source transmissionStateChanged
attr title "Radio transmission state, vector"
vector 36 ToyEVDoSScenario.ev[0].wlan[0].mac.dcf packetSentToPeer:vector(packetBytes) ETV
attr interpolationmode none
attr title "packets sent, vector(packetBytes)"
vector 37 ToyEVDoSScenario.ev[0].wlan[0].mac.dcf packetSentToPeerMulticast:vector(packetBytes) ETV
attr interpolationmode none
attr source ieee80211Multicast(packetSentToPeer)
attr title "packets sent: multicast, vector(packetBytes)"
vector 38 ToyEVDoSScenario.ev[0].wlan[0].mac.dcf packetSentToPeerWithoutRetry:vector(packetBytes) ETV
attr interpolationmode none
attr source ieee80211NotRetry(packetSentToPeer)
attr title "packets sent: without retry, vector(packetBytes)"
vector 39 ToyEVDoSScenario.ev[0].wlan[0].mac.dcf.channelAccess.inProgressFrames queueingTime:vector ETV
attr interpolationmode none
attr source queueingTime(packetDequeued)
attr title "queueing times, vector"
vector 40 ToyEVDoSScenario.rsu[0].wlan[0].mac packetReceivedFromLower:vector(packetBytes) ETV
attr interpolationmode none
attr title "packets received from lower layer, vector(packetBytes)"
vector 41 ToyEVDoSScenario.rsu[0].wlan[0].mac.dcf packetReceivedFromPeer:vector(packetBytes) ETV
attr interpolationmode none
attr title "packets received, vector(packetBytes)"
vector 42 ToyEVDoSScenario.rsu[0].wlan[0].mac.dcf packetReceivedFromPeerMulticast:vector(packetBytes) ETV
attr interpolationmode none
attr source ieee80211Multicast(packetReceivedFromPeer)
attr title "packets received: multicast, vector(packetBytes)"
vector 43 ToyEVDoSScenario.rsu[0].wlan[0].mac.dcf packetReceivedFromPeerWithoutRetry:vector(packetBytes) ETV
attr interpolationmode none
attr source ieee80211NotRetry(packetReceivedFromPeer)
attr title "packets received: without retry, vector(packetBytes)"
vector 44 ToyEVDoSScenario.rsu[0].wlan[0].mac packetSentToUpper:vector(packetBytes) ETV
attr interpolationmode none
attr title "packets sent to upper layer, vector(packetBytes)"
vector 45 ToyEVDoSScenario.rsu[0].udp packetReceived:vector(packetBytes) ETV
attr interpolationmode none
attr source packetReceived
attr title "packets received, vector(packetBytes)"
vector 46 ToyEVDoSScenario.rsu[0].udp passedUpPk:vector(count) ETV
attr interpolationmode none
attr source packetSentToUpper
attr title "packets passed up, vector(count)"
vector 47 ToyEVDoSScenario.rsu[0].app[0] packetReceived:vector ETV
attr interpolationmode none
attr title "packets received, vector"
vector 48 ToyEVDoSScenario.rsu[0].app[0] packetSize:vector ETV
attr interpolationmode none
attr title "packet size, vector"
attr unit B
vector 49 ToyEVDoSScenario.rsu[0].app[0] interArrivalTime:vector ETV
attr interpolationmode none
attr title "inter arrival time, vector"
attr unit s
vector 50 ToyEVDoSScenario.rsu[0].app[0] energyConsumption:vector ETV
attr interpolationmode none
attr title "energy consumption, vector"
attr unit J
vector 51 ToyEVDoSScenario.rsu[0].app[0] txDuration:vector ETV
attr interpolationmode none
attr title "tx duration estimate, vector"
attr unit s
vector 52 ToyEVDoSScenario.cs[0].wlan[0].mac packetReceivedFromLower:vector(packetBytes) ETV
attr interpolationmode none
attr title "packets received from lower layer, vector(packetBytes)"
vector 53 ToyEVDoSScenario.cs[0].wlan[0].mac.dcf packetReceivedFromPeer:vector(packetBytes) ETV
attr interpolationmode none
attr title "packets received, vector(packetBytes)"
vector 54 ToyEVDoSScenario.cs[0].wlan[0].mac.dcf packetReceivedFromPeerMulticast:vector(packetBytes) ETV
attr interpolationmode none
attr source ieee80211Multicast(packetReceivedFromPeer)
attr title "packets received: multicast, vector(packetBytes)"
vector 55 ToyEVDoSScenario.cs[0].wlan[0].mac.dcf packetReceivedFromPeerWithoutRetry:vector(packetBytes) ETV
attr interpolationmode none
attr source ieee80211NotRetry(packetReceivedFromPeer)
attr title "packets received: without retry, vector(packetBytes)"
vector 56 ToyEVDoSScenario.cs[0].wlan[0].mac packetSentToUpper:vector(packetBytes) ETV
attr interpolationmode none
attr title "packets sent to upper layer, vector(packetBytes)"
vector 57 ToyEVDoSScenario.cs[0].udp packetReceived:vector(packetBytes) ETV
attr interpolationmode none
attr source packetReceived
attr title "packets received, vector(packetBytes)"
vector 58 ToyEVDoSScenario.cs[0].udp passedUpPk:vector(count) ETV
attr interpolationmode none
attr source packetSentToUpper
attr title "packets passed up, vector(count)"
vector 59 ToyEVDoSScenario.cs[0].app[0] packetReceived:vector ETV
vector 60 ToyEVDoSScenario.cs[0].app[0] packetSize:vector ETV
vector 61 ToyEVDoSScenario.cs[0].app[0] interArrivalTime:vector ETV
vector 62 ToyEVDoSScenario.cs[0].app[0] energyConsumption:vector ETV
vector 63 ToyEVDoSScenario.cs[0].app[0] txDuration:vector ETV
vector 64 ToyEVDoSScenario.ev[1].wlan[0].radio radioMode:vector ETV
attr interpolationmode sample-hold
attr source radioModeChanged
attr title "Radio mode, vector"
vector 65 ToyEVDoSScenario.ev[1].wlan[0].radio radioChannel:vector ETV
attr interpolationmode sample-hold
attr source radioChannelChanged
attr title "Radio channel, vector"
vector 66 ToyEVDoSScenario.ev[1].wlan[0].radio receptionState:vector ETV
attr interpolationmode sample-hold
attr source receptionStateChanged
attr title "Radio reception state, vector"
vector 67 ToyEVDoSScenario.ev[1].wlan[0].mac.dcf.recoveryProcedure contentionWindowChanged:vector ETV
attr interpolationmode sample-hold
attr title "contention window, vector"
vector 68 ToyEVDoSScenario.ev[1].wlan[0].mac packetReceivedFromLower:vector(packetBytes) ETV
attr interpolationmode none
attr title "packets received from lower layer, vector(packetBytes)"
vector 69 ToyEVDoSScenario.ev[1].wlan[0].mac.dcf packetReceivedFromPeer:vector(packetBytes) ETV
attr interpolationmode none
attr title "packets received, vector(packetBytes)"
vector 70 ToyEVDoSScenario.ev[1].wlan[0].mac.dcf packetReceivedFromPeerMulticast:vector(packetBytes) ETV
attr interpolationmode none
attr source ieee80211Multicast(packetReceivedFromPeer)
attr title "packets received: multicast, vector(packetBytes)"
vector 71 ToyEVDoSScenario.ev[1].wlan[0].mac.dcf packetReceivedFromPeerWithoutRetry:vector(packetBytes) ETV
attr interpolationmode none
attr source ieee80211NotRetry(packetReceivedFromPeer)
attr title "packets received: without retry, vector(packetBytes)"
vector 72 ToyEVDoSScenario.ev[1].wlan[0].mac packetSentToUpper:vector(packetBytes) ETV
attr interpolationmode none
attr title "packets sent to upper layer, vector(packetBytes)"
vector 73 ToyEVDoSScenario.ev[1].udp packetReceived:vector(packetBytes) ETV
attr interpolationmode none
attr source packetReceived
attr title "packets received, vector(packetBytes)"
vector 74 ToyEVDoSScenario.ev[1].udp passedUpPk:vector(count) ETV
attr interpolationmode none
attr source packetSentToUpper
attr title "packets passed up, vector(count)"
vector 75 ToyEVDoSScenario.ev[1].app[0] packetReceived:vector ETV
attr interpolationmode none
attr source packetReceived
attr title "packets received, vector"
vector 76 ToyEVDoSScenario.ev[1].app[0] packetSize:vector ETV
vector 77 ToyEVDoSScenario.ev[1].app[0] interArrivalTime:vector ETV
vector 78 ToyEVDoSScenario.ev[1].app[0] batteryLevel:vector ETV
vector 79 ToyEVDoSScenario.ev[1].app[0] soc:vector ETV
attr title "State of Charge, vector"
vector 80 ToyEVDoSScenario.ev[1].app[0] energyConsumption:vector ETV
vector 81 ToyEVDoSScenario.ev[1].app[0] txDuration:vector ETV
vector 82 ToyEVDoSScenario.ev[1].app[0] senderSpeed:vector ETV
vector 83 ToyEVDoSScenario.ev[1].app[0] isCharging:vector ETV
vector 84 ToyEVDoSScenario.ev[1].app[0] packetSent:vector ETV
attr interpolationmode none
attr source packetSent
attr title "packets sent, vector"
vector 85 ToyEVDoSScenario.ev[1].udp packetSent:vector(packetBytes) ETV
attr interpolationmode none
attr source packetSent
attr title "packets sent, vector(packetBytes)"
vector 86 ToyEVDoSScenario.ev[1].lo[0].lo rcvdPkFromHl:vector(packetBytes) ETV
attr interpolationmode none
attr source packetReceivedFromUpper
attr title "packets received from higher layer, vector(packetBytes)"
vector 87 ToyEVDoSScenario.ev[1].lo[0].lo passedUpPk:vector(packetBytes) ETV
attr interpolationmode none
attr source packetSentToUpper
attr title "packets passed to higher layer, vector(packetBytes)"
vector 88 ToyEVDoSScenario.ev[1].wlan[0].mac packetReceivedFromUpper:vector(packetBytes) ETV
attr interpolationmode none
attr title "packets received from upper layer, vector(packetBytes)"
vector 89 ToyEVDoSScenario.ev[1].wlan[0].mac.dcf.channelAccess.pendingQueue packetPushed:vector(packetBytes) ETV
attr interpolationmode none
attr title "packet pushed, vector(packetBytes)"
vector 90 ToyEVDoSScenario.ev[1].wlan[0].mac.dcf.channelAccess.pendingQueue queueLength:vector ETV
attr interpolationmode sample-hold
attr source "count(packetPushed) - count(packetPopped) - count(packetRemoved) - count(packetDropped)"
attr title "queue length, vector"
vector 91 ToyEVDoSScenario.ev[1].wlan[0].mac.dcf.channelAccess.contention backoffPeriodGenerated:vector ETV
attr interpolationmode none
attr title "backoff periods, vector"
vector 92 ToyEVDoSScenario.ev[1].wlan[0].mac.dcf.channelAccess.contention backoffActive:vector ETV
attr interpolationmode sample-hold
attr source count(backoffStarted)-count(backoffStopped)
attr title "backoff active, vector"
vector 93 ToyEVDoSScenario.ev[1].wlan[0].mac.dcf.channelAccess.pendingQueue packetPopped:vector(packetBytes) ETV
attr interpolationmode none
attr title "packet popped, vector(packetBytes)"
vector 94 ToyEVDoSScenario.ev[1].wlan[0].mac.dcf.channelAccess.pendingQueue queueingTime:vector ETV
attr interpolationmode none
attr source queueingTime(packetPopped)
attr title "queueing times, vector"
attr unit s
vector 95 ToyEVDoSScenario.ev[1].wlan[0].mac.dcf.channelAccess.inProgressFrames queueLength:vector ETV
attr interpolationmode sample-hold
attr source "count(packetEnqueued) - count(packetDequeued)"
attr title "queue length, vector"
vector 96 ToyEVDoSScenario.ev[1].wlan[0].mac.dcf datarateSelected:vector ETV
attr interpolationmode none
attr title "datarates selected, vector"
vector 97 ToyEVDoSScenario.ev[1].wlan[0].mac packetSentToLower:vector(packetBytes) ETV
attr interpolationmode none
attr title "packets sent to lower layer, vector(packetBytes)"
vector 98 ToyEVDoSScenario.ev[1].wlan[0].mac.dcf frameSequenceActive:vector ETV
attr interpolationmode sample-hold
attr source count(frameSequenceStarted)-count(frameSequenceFinished)
attr title "frame sequence active, vector"
vector 99 ToyEVDoSScenario.ev[1].wlan[0].radio transmissionState:vector ETV
attr interpolationmode sample-hold
attr source transmissionStateChanged
attr title "Radio transmission state, vector"
vector 100 ToyEVDoSScenario.ev[1].wlan[0].mac.dcf packetSentToPeer:vector(packetBytes) ETV
attr interpolationmode none
attr title "packets sent, vector(packetBytes)"
vector 101 ToyEVDoSScenario.ev[1].wlan[0].mac.dcf packetSentToPeerMulticast:vector(packetBytes) ETV
attr interpolationmode none
attr source ieee80211Multicast(packetSentToPeer)
attr title "packets sent: multicast, vector(packetBytes)"
vector 102 ToyEVDoSScenario.ev[1].wlan[0].mac.dcf packetSentToPeerWithoutRetry:vector(packetBytes) ETV
attr interpolationmode none
attr source ieee80211NotRetry(packetSentToPeer)
attr title "packets sent: without retry, vector(packetBytes)"
vector 103 ToyEVDoSScenario.ev[1].wlan[0].mac.dcf.channelAccess.inProgressFrames queueingTime:vector ETV
attr interpolationmode none
attr source queueingTime(packetDequeued)
attr title "queueing times, vector"
vector 104 ToyEVDoSScenario.ev[0].wlan[0].mac packetReceivedFromLower:vector(packetBytes) ETV
attr interpolationmode none
attr title "packets received from lower layer, vector(packetBytes)"
vector 105 ToyEVDoSScenario.ev[0].wlan[0].mac.dcf packetReceivedFromPeer:vector(packetBytes) ETV
attr interpolationmode none
attr title "packets received, vector(packetBytes)"
vector 106 ToyEVDoSScenario.ev[0].wlan[0].mac.dcf packetReceivedFromPeerMulticast:vector(packetBytes) ETV
attr interpolationmode none
attr source ieee80211Multicast(packetReceivedFromPeer)
attr title "packets received: multicast, vector(packetBytes)"
vector 107 ToyEVDoSScenario.ev[0].wlan[0].mac.dcf packetReceivedFromPeerWithoutRetry:vector(packetBytes) ETV
attr interpolationmode none
attr source ieee80211NotRetry(packetReceivedFromPeer)
attr title "packets received: without retry, vector(packetBytes)"
vector 108 ToyEVDoSScenario.ev[0].wlan[0].mac packetSentToUpper:vector(packetBytes) ETV
attr interpolationmode none
attr title "packets sent to upper layer, vector(packetBytes)"
vector 109 ToyEVDoSScenario.ev[0].app[0] packetReceived:vector ETV
attr interpolationmode none
attr source packetReceived
attr title "packets received, vector"
vector 110 ToyEVDoSScenario.ev[0].app[0] txDuration:vector ETV
vector 111 ToyEVDoSScenario.ev[0].app[0] senderSpeed:vector ETV
vector 112 ToyEVDoSScenario.rsu[0].udp droppedPkWrongPort:vector(count) ETV
attr interpolationmode none
attr source packetDropReasonIsNoPortFound(packetDropped)
attr title "packets dropped (wrong port), vector(count)"
20	106	6.374406751152	275
20	151	7.249819346424	331
20	188	7.966534638498	298
20	234	8.937464849744	267
20	276	9.591900500748	305
20	309	9.861603938322	425
20	358	10.757613654527	405
20	409	11.373995638917	260
20	531	12.003894221502	245
20	618	12.925972998607	330
20	703	13.294279047939	234
20	789	14.016511303092	414
20	870	14.304811414423	341
20	955	15.043739119264	355
20	1000	15.469984686839	415
20	1090	16.220913635845	383
20	1218	17.157839725445	416
20	1297	17.653686202037	300
20	1386	18.327319743204	367
20	1476	19.140938705298	416
20	1556	19.767503706644	241
20	1643	20.11	346
20	1679	20.122813770596	1523
20	1729	20.132019141826	1225
20	1766	20.141706698868	1166
20	1803	20.154699780885	255
20	1838	20.162700865993	676
20	1875	20.173115470459	301
20	1910	20.182355214976	892
20	1947	20.195208344049	727
20	1982	20.199565794597	272
20	2056	20.207873085173	1164
20	2092	20.215064118717	1196
20	2129	20.223491475606	642
20	2166	20.234996541088	312
20	2201	20.243331200429	901
20	2237	20.25327395324	567
20	2273	20.260612463248	1302
20	2309	20.269878974272	1202
20	2346	20.281341981526	1357
20	2382	20.293722009268	291
20	2418	20.302301943536	1223
20	2454	20.311602726883	1188
20	2490	20.320473888206	1109
20	2527	20.333190638155	1448
20	2562	20.341567289129	804
20	2598	20.351676493397	1163
20	2635	20.36305914648	409
20	2671	20.375242280088	602
20	2706	20.383291733321	1389
20	2742	20.391391412358	842
20	2780	20.402723896323	871
20	2816	20.41514621476	1087
20	2851	20.422419902576	634
20	2887	20.430021666244	695
20	2924	20.442019894812	863
20	2959	20.451933660373	1496
20	3010	20.460244077462	808
20	3048	20.47203929297	582
20	3084	20.484106593437	557
20	3120	20.496280452121	1035
20	3156	20.503304740754	1404
20	3193	20.515237447164	354
20	3229	20.528121645205	1140
20	3265	20.540886653132	1071
20	3300	20.550283646634	1119
20	3336	20.558078572432	1254
20	3373	20.569702056925	1413
20	3409	20.580766527872	883
20	3445	20.591110740591	812
20	3482	20.601662351574	729
20	3517	20.611399194958	1100
20	3553	20.620999828816	1503
20	3604	20.6285180907	1251
20	3642	20.640182536048	535
20	3677	20.64881946743	574
20	3713	20.658578602702	1102
20	3749	20.666040341366	1367
20	3785	20.67650559906	1381
20	3821	20.683717773677	761
20	3857	20.693934838674	391
20	3894	20.70170800208	1403
20	3930	20.709830787437	1442
20	3967	20.722123035927	1246
20	4002	20.731517187889	1235
20	4039	20.742714920225	736
20	4075	20.753531286564	366
20	4110	20.762381003544	401
20	4147	20.775103331832	837
20	4219	20.785833402776	1274
20	4255	20.795224008329	621
20	4293	20.806590186351	1094
20	4328	20.815722399449	1183
20	4363	20.816395077015	420
20	4402	20.827794545556	699
20	4437	20.836754750876	256
20	4473	20.84395319841	1130
20	4509	20.851361642867	1128
20	4545	20.859880790013	609
20	4581	20.86757369577	253
20	4617	20.874847653622	381
20	4654	20.886689790648	361
20	4689	20.895566310404	606
20	4727	20.906541337827	275
20	4762	20.916645188906	1503
20	4815	20.928580545587	1214
20	4851	20.940552487082	1180
20	4886	20.948948249026	1205
20	4923	20.961861197608	1490
20	4973	20.970640535203	865
20	5010	20.979041056737	818
20	5046	20.986723956572	891
20	5082	20.99596973367	1402
20	5123	21.004000852267	276
20	5160	21.016035986992	1207
20	5196	21.026839973164	531
20	5231	21.033987692903	736
20	5267	21.043698622992	832
20	5303	21.053383718206	1408
20	5340	21.065756033514	240
20	5375	21.073646902015	627
20	5411	21.082276818634	1184
20	5448	21.094605080869	680
20	5483	21.096087017934	273
20	5525	21.106108650983	1431
20	5561	21.116183360945	646
20	5598	21.12691766748	1168
20	5634	21.137751831787	266
20	5669	21.146448029668	859
20	5705	21.155684104115	786
20	5741	21.165700361382	344
20	5778	21.17643374775	1360
20	5813	21.184030246107	1041
20	5850	21.196723412253	328
20	5887	21.209555907283	419
20	5923	21.220734801854	1524
20	5973	21.227909401904	1441
20	6010	21.237208019232	611
20	6046	21.24666982859	769
20	6082	21.255639648451	1441
20	6118	21.265655973033	289
20	6155	21.27674015645	1346
20	6190	21.285639083967	418
20	6227	21.296119725415	299
20	6263	21.303994946342	882
20	6300	21.316460910288	306
20	6335	21.324567085872	1191
20	6371	21.334740725441	1465
20	6423	21.345324543064	1225
20	6460	21.356307739462	396
20	6495	21.365727047689	890
20	6531	21.374934613168	1197
20	6567	21.384061649525	1518
20	6620	21.395016708379	1300
20	6657	21.407642519712	728
20	6693	21.41998128164	745
20	6728	21.427473628114	896
20	6765	21.439700123534	893
20	6801	21.45020054865	576
20	6837	21.462815541126	1115
20	6872	21.471084744548	266
20	6909	21.483257120128	917
20	6944	21.492551760722	1368
20	6980	21.499902970256	622
20	7017	21.509953312574	369
20	7053	21.517191215328	626
20	7089	21.525602792402	1173
20	7126	21.537743323887	1128
20	7161	21.544875165702	1125
20	7198	21.555627314893	1053
20	7233	21.564571811061	1372
20	7270	21.576226630364	746
20	7306	21.586596094053	786
20	7341	21.594107492418	1447
20	7379	21.60644321632	886
20	7414	21.613450461753	423
20	7450	21.622641061007	1145
20	7487	21.633964226127	310
20	7522	21.642611676427	257
20	7558	21.650477393019	288
20	7594	21.659694331182	374
20	7631	21.672004042558	1101
20	7667	21.683281603681	865
20	7703	21.694970481285	1241
20	7739	21.7021441966	1360
20	7812	21.713149756437	261
20	7848	21.722339227445	1233
20	7885	21.733429667119	852
20	7920	21.741133948897	607
20	7957	21.753958337541	401
20	7993	21.76463553808	1049
20	8029	21.775953259004	278
20	8064	21.784755681081	1213
20	8100	21.794880249684	1311
20	8137	21.804111762191	1297
20	8173	21.81302116324	1211
20	8209	21.822688686952	799
20	8246	21.835358847606	623
20	8281	21.842749342484	1077
20	8317	21.852982553527	768
20	8353	21.861747013501	848
20	8390	21.873416043067	1190
20	8425	21.882977469223	901
20	8461	21.890591951744	1325
20	8497	21.898044106167	911
20	8535	21.908453411715	1499
20	8587	21.920087005178	1505
20	8637	21.928540076722	1476
20	8689	21.935584886624	1438
20	8727	21.947441076449	359
20	8762	21.956552693878	1492
20	8813	21.965697241763	260
20	8850	21.974096284297	647
20	8887	21.984764248827	1123
20	8922	21.985941856261	384
20	8959	21.9958326053	1139
20	9000	22.003362094739	368
20	9036	22.011316972173	528
20	9073	22.023443732331	589
20	9109	22.03593291088	1403
20	9144	22.043126550613	1494
20	9197	22.055030585299	277
20	9232	22.064488942527	426
20	9269	22.075912613993	814
20	9304	22.08311703858	257
20	9340	22.090958934721	683
21	106	6.374406751152	275
21	151	7.249819346424	331
21	188	7.966534638498	298
21	234	8.937464849744	267
21	276	9.591900500748	305
21	309	9.861603938322	425
21	358	10.757613654527	405
21	409	11.373995638917	260
21	531	12.003894221502	245
21	618	12.925972998607	330
21	703	13.294279047939	234
21	789	14.016511303092	414
21	870	14.304811414423	341
21	955	15.043739119264	355
21	1000	15.469984686839	415
21	1090	16.220913635845	383
21	1218	17.157839725445	416
21	1297	17.653686202037	300
21	1386	18.327319743204	367
21	1476	19.140938705298	416
21	1556	19.767503706644	241
21	1643	20.11	346
21	1679	20.122813770596	1523
21	1729	20.132019141826	1225
21	1766	20.141706698868	1166
21	1803	20.154699780885	255
21	1838	20.162700865993	676
21	1875	20.173115470459	301
21	1910	20.182355214976	892
21	1947	20.195208344049	727
21	1982	20.199565794597	272
21	2056	20.207873085173	1164
21	2092	20.215064118717	1196
21	2129	20.223491475606	642
21	2166	20.234996541088	312
21	2201	20.243331200429	901
21	2237	20.25327395324	567
21	2273	20.260612463248	1302
21	2309	20.269878974272	1202
21	2346	20.281341981526	1357
21	2382	20.293722009268	291
21	2418	20.302301943536	1223
21	2454	20.311602726883	1188
21	2490	20.320473888206	1109
21	2527	20.333190638155	1448
21	2562	20.341567289129	804
21	2598	20.351676493397	1163
21	2635	20.36305914648	409
21	2671	20.375242280088	602
21	2706	20.383291733321	1389
21	2742	20.391391412358	842
21	2780	20.402723896323	871
21	2816	20.41514621476	1087
21	2851	20.422419902576	634
21	2887	20.430021666244	695
21	2924	20.442019894812	863
21	2959	20.451933660373	1496
21	3010	20.460244077462	808
21	3048	20.47203929297	582
21	3084	20.484106593437	557
21	3120	20.496280452121	1035
21	3156	20.503304740754	1404
21	3193	20.515237447164	354
21	3229	20.528121645205	1140
21	3265	20.540886653132	1071
21	3300	20.550283646634	1119
21	3336	20.558078572432	1254
21	3373	20.569702056925	1413
21	3409	20.580766527872	883
21	3445	20.591110740591	812
21	3482	20.601662351574	729
21	3517	20.611399194958	1100
21	3553	20.620999828816	1503
21	3604	20.6285180907	1251
21	3642	20.640182536048	535
21	3677	20.64881946743	574
21	3713	20.658578602702	1102
21	3749	20.666040341366	1367
21	3785	20.67650559906	1381
21	3821	20.683717773677	761
21	3857	20.693934838674	391
21	3894	20.70170800208	1403
21	3930	20.709830787437	1442
21	3967	20.722123035927	1246
21	4002	20.731517187889	1235
21	4039	20.742714920225	736
21	4075	20.753531286564	366
21	4110	20.762381003544	401
21	4147	20.775103331832	837
21	4219	20.785833402776	1274
21	4255	20.795224008329	621
21	4293	20.806590186351	1094
21	4328	20.815722399449	1183
21	4363	20.816395077015	420
21	4402	20.827794545556	699
21	4437	20.836754750876	256
21	4473	20.84395319841	1130
21	4509	20.851361642867	1128
21	4545	20.859880790013	609
21	4581	20.86757369577	253
21	4617	20.874847653622	381
21	4654	20.886689790648	361
21	4689	20.895566310404	606
21	4727	20.906541337827	275
21	4762	20.916645188906	1503
21	4815	20.928580545587	1214
21	4851	20.940552487082	1180
21	4886	20.948948249026	1205
21	4923	20.961861197608	1490
21	4973	20.970640535203	865
21	5010	20.979041056737	818
21	5046	20.986723956572	891
21	5082	20.99596973367	1402
21	5123	21.004000852267	276
21	5160	21.016035986992	1207
21	5196	21.026839973164	531
21	5231	21.033987692903	736
21	5267	21.043698622992	832
21	5303	21.053383718206	1408
21	5340	21.065756033514	240
21	5375	21.073646902015	627
21	5411	21.082276818634	1184
21	5448	21.094605080869	680
21	5483	21.096087017934	273
21	5525	21.106108650983	1431
21	5561	21.116183360945	646
21	5598	21.12691766748	1168
21	5634	21.137751831787	266
21	5669	21.146448029668	859
21	5705	21.155684104115	786
21	5741	21.165700361382	344
21	5778	21.17643374775	1360
21	5813	21.184030246107	1041
21	5850	21.196723412253	328
21	5887	21.209555907283	419
21	5923	21.220734801854	1524
21	5973	21.227909401904	1441
21	6010	21.237208019232	611
21	6046	21.24666982859	769
21	6082	21.255639648451	1441
21	6118	21.265655973033	289
21	6155	21.27674015645	1346
21	6190	21.285639083967	418
21	6227	21.296119725415	299
21	6263	21.303994946342	882
21	6300	21.316460910288	306
21	6335	21.324567085872	1191
21	6371	21.334740725441	1465
21	6423	21.345324543064	1225
21	6460	21.356307739462	396
21	6495	21.365727047689	890
21	6531	21.374934613168	1197
21	6567	21.384061649525	1518
21	6620	21.395016708379	1300
21	6657	21.407642519712	728
21	6693	21.41998128164	745
21	6728	21.427473628114	896
21	6765	21.439700123534	893
21	6801	21.45020054865	576
21	6837	21.462815541126	1115
21	6872	21.471084744548	266
21	6909	21.483257120128	917
21	6944	21.492551760722	1368
21	6980	21.499902970256	622
21	7017	21.509953312574	369
21	7053	21.517191215328	626
21	7089	21.525602792402	1173
21	7126	21.537743323887	1128
21	7161	21.544875165702	1125
21	7198	21.555627314893	1053
21	7233	21.564571811061	1372
21	7270	21.576226630364	746
21	7306	21.586596094053	786
21	7341	21.594107492418	1447
21	7379	21.60644321632	886
21	7414	21.613450461753	423
21	7450	21.622641061007	1145
21	7487	21.633964226127	310
21	7522	21.642611676427	257
21	7558	21.650477393019	288
21	7594	21.659694331182	374
21	7631	21.672004042558	1101
21	7667	21.683281603681	865
21	7703	21.694970481285	1241
21	7739	21.7021441966	1360
21	7812	21.713149756437	261
21	7848	21.722339227445	1233
21	7885	21.733429667119	852
21	7920	21.741133948897	607
21	7957	21.753958337541	401
21	7993	21.76463553808	1049
21	8029	21.775953259004	278
21	8064	21.784755681081	1213
21	8100	21.794880249684	1311
21	8137	21.804111762191	1297
21	8173	21.81302116324	1211
21	8209	21.822688686952	799
21	8246	21.835358847606	623
21	8281	21.842749342484	1077
21	8317	21.852982553527	768
21	8353	21.861747013501	848
21	8390	21.873416043067	1190
21	8425	21.882977469223	901
21	8461	21.890591951744	1325
21	8497	21.898044106167	911
21	8535	21.908453411715	1499
21	8587	21.920087005178	1505
21	8637	21.928540076722	1476
21	8689	21.935584886624	1438
21	8727	21.947441076449	359
21	8762	21.956552693878	1492
21	8813	21.965697241763	260
21	8850	21.974096284297	647
21	8887	21.984764248827	1123
21	8922	21.985941856261	384
21	8959	21.9958326053	1139
21	9000	22.003362094739	368
21	9036	22.011316972173	528
21	9073	22.023443732331	589
21	9109	22.03593291088	1403
21	9144	22.043126550613	1494
21	9197	22.055030585299	277
21	9232	22.064488942527	426
21	9269	22.075912613993	814
21	9304	22.08311703858	257
21	9340	22.090958934721	683
104	463	11.499745414531	415
104	504	11.848775303773	298
104	591	12.308116123307	384
104	676	13.066213099649	363
104	761	13.722370537393	364
104	847	14.124991826713	333
104	926	14.619983967949	362
104	1055	15.601400852516	387
104	1143	16.253523948837	307
104	1187	16.987500251257	446
104	1273	17.333993342026	267
104	1363	18.122168558328	331
104	1442	18.679908861226	448
104	1531	19.344919161931	424
104	1611	19.924773179216	304
104	2036	20.207063867146	300
104	4198	20.777832648073	329
104	7790	21.704891617259	275
33	113	6.374406751152	311
33	158	7.249819346424	367
33	195	7.966534638498	334
33	241	8.937464849744	303
33	283	9.591900500748	341
33	316	9.861603938322	461
33	365	10.757613654527	441
33	416	11.373995638917	296
33	538	12.003894221502	281
33	625	12.925972998607	366
33	710	13.294279047939	270
33	796	14.016511303092	450
33	877	14.304811414423	377
33	962	15.043739119264	391
33	1007	15.469984686839	451
33	1097	16.220913635845	419
33	1225	17.157839725445	452
33	1304	17.653686202037	336
33	1393	18.327319743204	403
33	1483	19.140938705298	452
33	1563	19.767503706644	277
33	1650	20.11	382
33	1686	20.122813770596	1500
33	1701	20.123513770596	87
33	1736	20.132019141826	1261
33	1773	20.141706698868	1202
33	1810	20.154699780885	291
33	1845	20.162700865993	712
33	1882	20.173115470459	337
33	1917	20.182355214976	928
33	1954	20.195208344049	763
33	1989	20.199565794597	308
33	2063	20.207873085173	1200
33	2099	20.215064118717	1232
33	2136	20.223491475606	678
33	2173	20.234996541088	348
33	2208	20.243331200429	937
33	2244	20.25327395324	603
33	2280	20.260612463248	1338
33	2316	20.269878974272	1238
33	2353	20.281341981526	1393
33	2389	20.293722009268	327
33	2425	20.302301943536	1259
33	2461	20.311602726883	1224
33	2497	20.320473888206	1145
33	2534	20.333190638155	1484
33	2569	20.341567289129	840
33	2605	20.351676493397	1199
33	2642	20.36305914648	445
33	2678	20.375242280088	638
33	2713	20.383291733321	1425
33	2749	20.391391412358	878
33	2787	20.402723896323	907
33	2823	20.41514621476	1123
33	2858	20.422419902576	670
33	2894	20.430021666244	731
33	2931	20.442019894812	899
33	2966	20.451933660373	1500
33	2982	20.452513660373	60
33	3017	20.460244077462	844
33	3055	20.47203929297	618
33	3091	20.484106593437	593
33	3127	20.496280452121	1071
33	3163	20.503304740754	1440
33	3200	20.515237447164	390
33	3236	20.528121645205	1176
33	3272	20.540886653132	1107
33	3307	20.550283646634	1155
33	3343	20.558078572432	1290
33	3380	20.569702056925	1449
33	3416	20.580766527872	919
33	3452	20.591110740591	848
33	3489	20.601662351574	765
33	3524	20.611399194958	1136
33	3560	20.620999828816	1500
33	3575	20.621659828816	67
33	3611	20.6285180907	1287
33	3649	20.640182536048	571
33	3684	20.64881946743	610
33	3720	20.658578602702	1138
33	3756	20.666040341366	1403
33	3792	20.67650559906	1417
33	3828	20.683717773677	797
33	3864	20.693934838674	427
33	3901	20.70170800208	1439
33	3937	20.709830787437	1478
33	3974	20.722123035927	1282
33	4009	20.731517187889	1271
33	4046	20.742714920225	772
33	4082	20.753531286564	402
33	4117	20.762381003544	437
33	4154	20.775103331832	873
33	4226	20.785833402776	1310
33	4262	20.795224008329	657
33	4300	20.806590186351	1130
33	4335	20.815722399449	1219
33	4370	20.816506399449	456
33	4409	20.827794545556	735
33	4444	20.836754750876	292
33	4480	20.84395319841	1166
33	4516	20.851361642867	1164
33	4552	20.859880790013	645
33	4588	20.86757369577	289
33	4624	20.874847653622	417
33	4661	20.886689790648	397
33	4696	20.895566310404	642
33	4734	20.906541337827	311
33	4769	20.916645188906	1500
33	4785	20.917505188906	67
33	4822	20.928580545587	1250
33	4858	20.940552487082	1216
33	4893	20.948948249026	1241
33	4930	20.961861197608	1500
33	4945	20.962661197608	54
33	4980	20.970640535203	901
33	5017	20.979041056737	854
33	5053	20.986723956572	927
33	5089	20.99596973367	1438
33	5130	21.004000852267	312
33	5167	21.016035986992	1243
33	5203	21.026839973164	567
33	5238	21.033987692903	772
33	5274	21.043698622992	868
33	5310	21.053383718206	1444
33	5347	21.065756033514	276
33	5382	21.073646902015	663
33	5418	21.082276818634	1220
33	5455	21.094605080869	716
33	5490	21.096087017934	309
33	5532	21.106108650983	1467
33	5568	21.116183360945	682
33	5605	21.12691766748	1204
33	5641	21.137751831787	302
33	5676	21.146448029668	895
33	5712	21.155684104115	822
33	5748	21.165700361382	380
33	5785	21.17643374775	1396
33	5820	21.184030246107	1077
33	5857	21.196723412253	364
33	5894	21.209555907283	455
33	5930	21.220734801854	1500
33	5945	21.221514801854	88
33	5980	21.227909401904	1477
33	6017	21.237208019232	647
33	6053	21.24666982859	805
33	6089	21.255639648451	1477
33	6125	21.265655973033	325
33	6162	21.27674015645	1382
33	6197	21.285639083967	454
33	6234	21.296119725415	335
33	6270	21.303994946342	918
33	6307	21.316460910288	342
33	6342	21.324567085872	1227
33	6378	21.334740725441	1500
33	6394	21.335540725441	29
33	6430	21.345324543064	1261
33	6467	21.356307739462	432
33	6502	21.365727047689	926
33	6538	21.374934613168	1233
33	6574	21.384061649525	1500
33	6589	21.384921649525	82
33	6627	21.395016708379	1336
33	6664	21.407642519712	764
33	6700	21.41998128164	781
33	6735	21.427473628114	932
33	6772	21.439700123534	929
33	6808	21.45020054865	612
33	6844	21.462815541126	1151
33	6879	21.471084744548	302
33	6916	21.483257120128	953
33	6951	21.492551760722	1404
33	6987	21.499902970256	658
33	7024	21.509953312574	405
33	7060	21.517191215328	662
33	7096	21.525602792402	1209
33	7133	21.537743323887	1164
33	7168	21.544875165702	1161
33	7205	21.555627314893	1089
33	7240	21.564571811061	1408
33	7277	21.576226630364	782
33	7313	21.586596094053	822
33	7348	21.594107492418	1483
33	7386	21.60644321632	922
33	7421	21.613450461753	459
33	7457	21.622641061007	1181
33	7494	21.633964226127	346
33	7529	21.642611676427	293
33	7565	21.650477393019	324
33	7601	21.659694331182	410
33	7638	21.672004042558	1137
33	7674	21.683281603681	901
33	7710	21.694970481285	1277
33	7746	21.7021441966	1396
33	7819	21.713149756437	297
33	7855	21.722339227445	1269
33	7892	21.733429667119	888
33	7927	21.741133948897	643
33	7964	21.753958337541	437
33	8000	21.76463553808	1085
33	8036	21.775953259004	314
33	8071	21.784755681081	1249
33	8107	21.794880249684	1347
33	8144	21.804111762191	1333
33	8180	21.81302116324	1247
33	8216	21.822688686952	835
33	8253	21.835358847606	659
33	8288	21.842749342484	1113
33	8324	21.852982553527	804
33	8360	21.861747013501	884
33	8397	21.873416043067	1226
33	8432	21.882977469223	937
33	8468	21.890591951744	1361
33	8504	21.898044106167	947
33	8542	21.908453411715	1500
33	8557	21.909313411715	63
33	8594	21.920087005178	1500
33	8609	21.920747005178	69
33	8644	21.928540076722	1500
33	8659	21.929180076722	40
33	8696	21.935584886624	1474
33	8734	21.947441076449	395
33	8769	21.956552693878	1500
33	8784	21.957332693878	56
33	8820	21.965697241763	296
33	8857	21.974096284297	683
33	8894	21.984764248827	1159
33	8929	21.985941856261	420
33	8966	21.9958326053	1175
33	9007	22.003362094739	404
33	9043	22.011316972173	564
33	9080	22.023443732331	625
33	9116	22.03593291088	1439
33	9151	22.043126550613	1500
33	9166	22.043986550613	58
33	9204	22.055030585299	313
33	9239	22.064488942527	462
33	9276	22.075912613993	850
33	9311	22.08311703858	293
33	9347	22.090958934721	719
22	109	6.374406751152	283
22	154	7.249819346424	339
22	191	7.966534638498	306
22	237	8.937464849744	275
22	279	9.591900500748	313
22	312	9.861603938322	433
22	361	10.757613654527	413
22	412	11.373995638917	268
22	534	12.003894221502	253
22	621	12.925972998607	338
22	706	13.294279047939	242
22	792	14.016511303092	422
22	873	14.304811414423	349
22	958	15.043739119264	363
22	1003	15.469984686839	423
22	1093	16.220913635845	391
22	1221	17.157839725445	424
22	1300	17.653686202037	308
22	1389	18.327319743204	375
22	1479	19.140938705298	424
22	1559	19.767503706644	249
22	1646	20.11	354
22	1682	20.122813770596	1531
22	1732	20.132019141826	1233
22	1769	20.141706698868	1174
22	1806	20.154699780885	263
22	1841	20.162700865993	684
22	1878	20.173115470459	309
22	1913	20.182355214976	900
22	1950	20.195208344049	735
22	1985	20.199565794597	280
22	2059	20.207873085173	1172
22	2095	20.215064118717	1204
22	2132	20.223491475606	650
22	2169	20.234996541088	320
22	2204	20.243331200429	909
22	2240	20.25327395324	575
22	2276	20.260612463248	1310
22	2312	20.269878974272	1210
22	2349	20.281341981526	1365
22	2385	20.293722009268	299
22	2421	20.302301943536	1231
22	2457	20.311602726883	1196
22	2493	20.320473888206	1117
22	2530	20.333190638155	1456
22	2565	20.341567289129	812
22	2601	20.351676493397	1171
22	2638	20.36305914648	417
22	2674	20.375242280088	610
22	2709	20.383291733321	1397
22	2745	20.391391412358	850
22	2783	20.402723896323	879
22	2819	20.41514621476	1095
22	2854	20.422419902576	642
22	2890	20.430021666244	703
22	2927	20.442019894812	871
22	2962	20.451933660373	1504
22	3013	20.460244077462	816
22	3051	20.47203929297	590
22	3087	20.484106593437	565
22	3123	20.496280452121	1043
22	3159	20.503304740754	1412
22	3196	20.515237447164	362
22	3232	20.528121645205	1148
22	3268	20.540886653132	1079
22	3303	20.550283646634	1127
22	3339	20.558078572432	1262
22	3376	20.569702056925	1421
22	3412	20.580766527872	891
22	3448	20.591110740591	820
22	3485	20.601662351574	737
22	3520	20.611399194958	1108
22	3556	20.620999828816	1511
22	3607	20.6285180907	1259
22	3645	20.640182536048	543
22	3680	20.64881946743	582
22	3716	20.658578602702	1110
22	3752	20.666040341366	1375
22	3788	20.67650559906	1389
22	3824	20.683717773677	769
22	3860	20.693934838674	399
22	3897	20.70170800208	1411
22	3933	20.709830787437	1450
22	3970	20.722123035927	1254
22	4005	20.731517187889	1243
22	4042	20.742714920225	744
22	4078	20.753531286564	374
22	4113	20.762381003544	409
22	4150	20.775103331832	845
22	4222	20.785833402776	1282
22	4258	20.795224008329	629
22	4296	20.806590186351	1102
22	4331	20.815722399449	1191
22	4366	20.816395077015	428
22	4405	20.827794545556	707
22	4440	20.836754750876	264
22	4476	20.84395319841	1138
22	4512	20.851361642867	1136
22	4548	20.859880790013	617
22	4584	20.86757369577	261
22	4620	20.874847653622	389
22	4657	20.886689790648	369
22	4692	20.895566310404	614
22	4730	20.906541337827	283
22	4765	20.916645188906	1511
22	4818	20.928580545587	1222
22	4854	20.940552487082	1188
22	4889	20.948948249026	1213
22	4926	20.961861197608	1498
22	4976	20.970640535203	873
22	5013	20.979041056737	826
22	5049	20.986723956572	899
22	5085	20.99596973367	1410
22	5126	21.004000852267	284
22	5163	21.016035986992	1215
22	5199	21.026839973164	539
22	5234	21.033987692903	744
22	5270	21.043698622992	840
22	5306	21.053383718206	1416
22	5343	21.065756033514	248
22	5378	21.073646902015	635
22	5414	21.082276818634	1192
22	5451	21.094605080869	688
22	5486	21.096087017934	281
22	5528	21.106108650983	1439
22	5564	21.116183360945	654
22	5601	21.12691766748	1176
22	5637	21.137751831787	274
22	5672	21.146448029668	867
22	5708	21.155684104115	794
22	5744	21.165700361382	352
22	5781	21.17643374775	1368
22	5816	21.184030246107	1049
22	5853	21.196723412253	336
22	5890	21.209555907283	427
22	5926	21.220734801854	1532
22	5976	21.227909401904	1449
22	6013	21.237208019232	619
22	6049	21.24666982859	777
22	6085	21.255639648451	1449
22	6121	21.265655973033	297
22	6158	21.27674015645	1354
22	6193	21.285639083967	426
22	6230	21.296119725415	307
22	6266	21.303994946342	890
22	6303	21.316460910288	314
22	6338	21.324567085872	1199
22	6374	21.334740725441	1473
22	6426	21.345324543064	1233
22	6463	21.356307739462	404
22	6498	21.365727047689	898
22	6534	21.374934613168	1205
22	6570	21.384061649525	1526
22	6623	21.395016708379	1308
22	6660	21.407642519712	736
22	6696	21.41998128164	753
22	6731	21.427473628114	904
22	6768	21.439700123534	901
22	6804	21.45020054865	584
22	6840	21.462815541126	1123
22	6875	21.471084744548	274
22	6912	21.483257120128	925
22	6947	21.492551760722	1376
22	6983	21.499902970256	630
22	7020	21.509953312574	377
22	7056	21.517191215328	634
22	7092	21.525602792402	1181
22	7129	21.537743323887	1136
22	7164	21.544875165702	1133
22	7201	21.555627314893	1061
22	7236	21.564571811061	1380
22	7273	21.576226630364	754
22	7309	21.586596094053	794
22	7344	21.594107492418	1455
22	7382	21.60644321632	894
22	7417	21.613450461753	431
22	7453	21.622641061007	1153
22	7490	21.633964226127	318
22	7525	21.642611676427	265
22	7561	21.650477393019	296
22	7597	21.659694331182	382
22	7634	21.672004042558	1109
22	7670	21.683281603681	873
22	7706	21.694970481285	1249
22	7742	21.7021441966	1368
22	7815	21.713149756437	269
22	7851	21.722339227445	1241
22	7888	21.733429667119	860
22	7923	21.741133948897	615
22	7960	21.753958337541	409
22	7996	21.76463553808	1057
22	8032	21.775953259004	286
22	8067	21.784755681081	1221
22	8103	21.794880249684	1319
22	8140	21.804111762191	1305
22	8176	21.81302116324	1219
22	8212	21.822688686952	807
22	8249	21.835358847606	631
22	8284	21.842749342484	1085
22	8320	21.852982553527	776
22	8356	21.861747013501	856
22	8393	21.873416043067	1198
22	8428	21.882977469223	909
22	8464	21.890591951744	1333
22	8500	21.898044106167	919
22	8538	21.908453411715	1507
22	8590	21.920087005178	1513
22	8640	21.928540076722	1484
22	8692	21.935584886624	1446
22	8730	21.947441076449	367
22	8765	21.956552693878	1500
22	8816	21.965697241763	268
22	8853	21.974096284297	655
22	8890	21.984764248827	1131
22	8925	21.985941856261	392
22	8962	21.9958326053	1147
22	9003	22.003362094739	376
22	9039	22.011316972173	536
22	9076	22.023443732331	597
22	9112	22.03593291088	1411
22	9147	22.043126550613	1502
22	9200	22.055030585299	285
22	9235	22.064488942527	434
22	9272	22.075912613993	822
22	9307	22.08311703858	265
22	9343	22.090958934721	691
108	463	11.499745414531	387
108	504	11.848775303773	270
108	591	12.308116123307	356
108	676	13.066213099649	335
108	761	13.722370537393	336
108	847	14.124991826713	305
108	926	14.619983967949	334
108	1055	15.601400852516	359
108	1143	16.253523948837	279
108	1187	16.987500251257	418
108	1273	17.333993342026	239
108	1363	18.122168558328	303
108	1442	18.679908861226	420
108	1531	19.344919161931	396
108	1611	19.924773179216	276
108	2036	20.207063867146	272
108	4198	20.777832648073	301
108	7790	21.704891617259	247
107	463	11.499745414531	415
107	504	11.848775303773	298
107	591	12.308116123307	384
107	676	13.066213099649	363
107	761	13.722370537393	364
107	847	14.124991826713	333
107	926	14.619983967949	362
107	1055	15.601400852516	387
107	1143	16.253523948837	307
107	1187	16.987500251257	446
107	1273	17.333993342026	267
107	1363	18.122168558328	331
107	1442	18.679908861226	448
107	1531	19.344919161931	424
107	1611	19.924773179216	304
107	2036	20.207063867146	300
107	4198	20.777832648073	329
107	7790	21.704891617259	275
106	463	11.499745414531	415
106	504	11.848775303773	298
106	591	12.308116123307	384
106	676	13.066213099649	363
106	761	13.722370537393	364
106	847	14.124991826713	333
106	926	14.619983967949	362
106	1055	15.601400852516	387
106	1143	16.253523948837	307
106	1187	16.987500251257	446
106	1273	17.333993342026	267
106	1363	18.122168558328	331
106	1442	18.679908861226	448
106	1531	19.344919161931	424
106	1611	19.924773179216	304
106	2036	20.207063867146	300
106	4198	20.777832648073	329
106	7790	21.704891617259	275
105	463	11.499745414531	415
105	504	11.848775303773	298
105	591	12.308116123307	384
105	676	13.066213099649	363
105	761	13.722370537393	364
105	847	14.124991826713	333
105	926	14.619983967949	362
105	1055	15.601400852516	387
105	1143	16.253523948837	307
105	1187	16.987500251257	446
105	1273	17.333993342026	267
105	1363	18.122168558328	331
105	1442	18.679908861226	448
105	1531	19.344919161931	424
105	1611	19.924773179216	304
105	2036	20.207063867146	300
105	4198	20.777832648073	329
105	7790	21.704891617259	275
38	118	6.374540751152	311
38	163	7.249969346424	367
38	200	7.966676638498	334
38	246	8.937594849744	303
38	288	9.592042500748	341
38	321	9.861785938322	461
38	371	10.757787654527	441
38	422	11.374121638917	296
38	544	12.004016221502	281
38	631	12.926122998607	366
38	716	13.294397047939	270
38	802	14.016689303092	450
38	883	14.304965414423	377
38	968	15.043897119264	391
38	1013	15.470162686839	451
38	1103	16.221083635845	419
38	1231	17.158017725445	452
38	1310	17.653828202037	336
38	1399	18.327481743204	403
38	1489	19.141116705298	452
38	1569	19.767625706644	277
38	1656	20.110158	382
38	1692	20.123343770596	1500
38	1707	20.123571770596	87
38	1742	20.132469141826	1261
38	1779	20.142136698868	1202
38	1816	20.154825780885	291
38	1851	20.162966865993	712
38	1888	20.173257470459	337
38	1923	20.182693214976	928
38	1960	20.195490344049	763
38	1995	20.199695794597	308
38	2069	20.208303085173	1200
38	2105	20.215502118717	1232
38	2142	20.223745475606	678
38	2179	20.235142541088	348
38	2214	20.243673200429	937
38	2250	20.25350395324	603
38	2286	20.261086463248	1338
38	2322	20.270320974272	1238
38	2359	20.281835981526	1393
38	2395	20.293860009268	327
38	2431	20.302751943536	1259
38	2467	20.312040726883	1224
38	2503	20.320883888206	1145
38	2540	20.333712638155	1484
38	2575	20.341877289129	840
38	2612	20.352106493397	1199
38	2648	20.36323714648	445
38	2684	20.375484280088	638
38	2719	20.383793733321	1425
38	2755	20.391713412358	878
38	2793	20.403053896323	907
38	2829	20.41554821476	1123
38	2864	20.422673902576	670
38	2900	20.430295666244	731
38	2937	20.442349894812	899
38	2973	20.452463660373	1500
38	2988	20.452563660373	60
38	3023	20.460554077462	844
38	3061	20.47227329297	618
38	3097	20.484332593437	593
38	3133	20.496666452121	1071
38	3169	20.503814740754	1440
38	3206	20.515395447164	390
38	3242	20.528543645205	1176
38	3278	20.541284653132	1107
38	3313	20.550697646634	1155
38	3349	20.558536572432	1290
38	3386	20.570212056925	1449
38	3422	20.581100527872	919
38	3458	20.591420740591	848
38	3495	20.601944351574	765
38	3530	20.611805194958	1136
38	3566	20.621529828816	1500
38	3581	20.621709828816	67
38	3617	20.6289760907	1287
38	3655	20.640400536048	571
38	3690	20.64905346743	610
38	3726	20.658988602702	1138
38	3762	20.666538341366	1403
38	3799	20.67700759906	1417
38	3834	20.684011773677	797
38	3871	20.694104838674	427
38	3907	20.70221800208	1439
38	3943	20.710352787437	1478
38	3980	20.722581035927	1282
38	4015	20.731971187889	1271
38	4052	20.743000920225	772
38	4088	20.753693286564	402
38	4123	20.762555003544	437
38	4160	20.775421331832	873
38	4232	20.786299402776	1310
38	4268	20.795470008329	657
38	4306	20.806996186351	1130
38	4341	20.816156399449	1219
38	4376	20.816688399449	456
38	4415	20.828068545556	735
38	4450	20.836880750876	292
38	4486	20.84437119841	1166
38	4522	20.851779642867	1164
38	4558	20.860122790013	645
38	4594	20.86769969577	289
38	4630	20.875013653622	417
38	4667	20.886851790648	397
38	4702	20.895808310404	642
38	4740	20.906675337827	311
38	4776	20.917175188906	1500
38	4791	20.917555188906	67
38	4828	20.929026545587	1250
38	4864	20.940986487082	1216
38	4899	20.949390249026	1241
38	4936	20.962391197608	1500
38	4951	20.962707197608	54
38	4986	20.970970535203	901
38	5023	20.979355056737	854
38	5059	20.987061956572	927
38	5095	20.99647973367	1438
38	5136	21.004134852267	312
38	5173	21.016477986992	1243
38	5209	21.027057973164	567
38	5244	21.034273692903	772
38	5280	21.044016622992	868
38	5316	21.053893718206	1444
38	5353	21.065878033514	276
38	5388	21.073896902015	663
38	5424	21.082710818634	1220
38	5461	21.094871080869	716
38	5496	21.096217017934	309
38	5539	21.106626650983	1467
38	5574	21.116441360945	682
38	5611	21.12734766748	1204
38	5647	21.137881831787	302
38	5682	21.146774029668	895
38	5718	21.155986104115	822
38	5754	21.165854361382	380
38	5791	21.17692774775	1396
38	5826	21.184416246107	1077
38	5863	21.196873412253	364
38	5900	21.209737907283	455
38	5936	21.221264801854	1500
38	5951	21.221572801854	88
38	5986	21.228431401904	1477
38	6023	21.237454019232	647
38	6059	21.24696782859	805
38	6095	21.256161648451	1477
38	6131	21.265793973033	325
38	6168	21.27723015645	1382
38	6203	21.285821083967	454
38	6240	21.296261725415	335
38	6276	21.304328946342	918
38	6313	21.316602910288	342
38	6348	21.325005085872	1227
38	6385	21.335270725441	1500
38	6400	21.335578725441	29
38	6437	21.345774543064	1261
38	6473	21.356481739462	432
38	6508	21.366065047689	926
38	6544	21.375372613168	1233
38	6580	21.384591649525	1500
38	6595	21.384979649525	82
38	6633	21.395490708379	1336
38	6670	21.407924519712	764
38	6706	21.42027128164	781
38	6741	21.427811628114	932
38	6778	21.440038123534	929
38	6814	21.45043454865	612
38	6850	21.463229541126	1151
38	6885	21.471214744548	302
38	6922	21.483603120128	953
38	6957	21.493049760722	1404
38	6994	21.500152970256	658
38	7030	21.510115312574	405
38	7066	21.517441215328	662
38	7102	21.526032792402	1209
38	7139	21.538161323887	1164
38	7174	21.545289165702	1161
38	7211	21.556017314893	1089
38	7246	21.565069811061	1408
38	7283	21.576516630364	782
38	7319	21.586898094053	822
38	7354	21.594629492418	1483
38	7392	21.60678121632	922
38	7427	21.613632461753	459
38	7463	21.623063061007	1181
38	7500	21.634110226127	346
38	7535	21.642737676427	293
38	7571	21.650615393019	324
38	7607	21.659860331182	410
38	7644	21.672410042558	1137
38	7680	21.683611603681	901
38	7716	21.695424481285	1277
38	7752	21.7026381966	1396
38	7825	21.713275756437	297
38	7861	21.722789227445	1269
38	7898	21.733755667119	888
38	7933	21.741375948897	643
38	7970	21.754132337541	437
38	8006	21.76502553808	1085
38	8042	21.776087259004	314
38	8077	21.785201681081	1249
38	8114	21.795358249684	1347
38	8150	21.804585762191	1333
38	8186	21.81346716324	1247
38	8222	21.822994686952	835
38	8259	21.835608847606	659
38	8294	21.843147342484	1113
38	8331	21.853280553527	804
38	8366	21.862069013501	884
38	8403	21.873854043067	1226
38	8438	21.883319469223	937
38	8474	21.891073951744	1361
38	8510	21.898390106167	947
38	8548	21.908983411715	1500
38	8563	21.909363411715	63
38	8600	21.920617005178	1500
38	8615	21.920797005178	69
38	8650	21.929070076722	1500
38	8665	21.929222076722	40
38	8702	21.936106886624	1474
38	8740	21.947603076449	395
38	8775	21.957082693878	1500
38	8790	21.957378693878	56
38	8826	21.965823241763	296
38	8863	21.974354284297	683
38	8900	21.985178248827	1159
38	8935	21.986111856261	420
38	8973	21.9962546053	1175
38	9013	22.003524094739	404
38	9049	22.011534972173	564
38	9086	22.023681732331	625
38	9122	22.03644291088	1439
38	9157	22.043656550613	1500
38	9172	22.044036550613	58
38	9210	22.055164585299	313
38	9245	22.064670942527	462
38	9282	22.076226613993	850
38	9317	22.08324303858	293
38	9353	22.091228934721	719
37	118	6.374540751152	311
37	163	7.249969346424	367
37	200	7.966676638498	334
37	246	8.937594849744	303
37	288	9.592042500748	341
37	321	9.861785938322	461
37	371	10.757787654527	441
37	422	11.374121638917	296
37	544	12.004016221502	281
37	631	12.926122998607	366
37	716	13.294397047939	270
37	802	14.016689303092	450
37	883	14.304965414423	377
37	968	15.043897119264	391
37	1013	15.470162686839	451
37	1103	16.221083635845	419
37	1231	17.158017725445	452
37	1310	17.653828202037	336
37	1399	18.327481743204	403
37	1489	19.141116705298	452
37	1569	19.767625706644	277
37	1656	20.110158	382
37	1692	20.123343770596	1500
37	1707	20.123571770596	87
37	1742	20.132469141826	1261
37	1779	20.142136698868	1202
37	1816	20.154825780885	291
37	1851	20.162966865993	712
37	1888	20.173257470459	337
37	1923	20.182693214976	928
37	1960	20.195490344049	763
37	1995	20.199695794597	308
37	2069	20.208303085173	1200
37	2105	20.215502118717	1232
37	2142	20.223745475606	678
37	2179	20.235142541088	348
37	2214	20.243673200429	937
37	2250	20.25350395324	603
37	2286	20.261086463248	1338
37	2322	20.270320974272	1238
37	2359	20.281835981526	1393
37	2395	20.293860009268	327
37	2431	20.302751943536	1259
37	2467	20.312040726883	1224
37	2503	20.320883888206	1145
37	2540	20.333712638155	1484
37	2575	20.341877289129	840
37	2612	20.352106493397	1199
37	2648	20.36323714648	445
37	2684	20.375484280088	638
37	2719	20.383793733321	1425
37	2755	20.391713412358	878
37	2793	20.403053896323	907
37	2829	20.41554821476	1123
37	2864	20.422673902576	670
37	2900	20.430295666244	731
37	2937	20.442349894812	899
37	2973	20.452463660373	1500
37	2988	20.452563660373	60
37	3023	20.460554077462	844
37	3061	20.47227329297	618
37	3097	20.484332593437	593
37	3133	20.496666452121	1071
37	3169	20.503814740754	1440
37	3206	20.515395447164	390
37	3242	20.528543645205	1176
37	3278	20.541284653132	1107
37	3313	20.550697646634	1155
37	3349	20.558536572432	1290
37	3386	20.570212056925	1449
37	3422	20.581100527872	919
37	3458	20.591420740591	848
37	3495	20.601944351574	765
37	3530	20.611805194958	1136
37	3566	20.621529828816	1500
37	3581	20.621709828816	67
37	3617	20.6289760907	1287
37	3655	20.640400536048	571
37	3690	20.64905346743	610
37	3726	20.658988602702	1138
37	3762	20.666538341366	1403
37	3799	20.67700759906	1417
37	3834	20.684011773677	797
37	3871	20.694104838674	427
37	3907	20.70221800208	1439
37	3943	20.710352787437	1478
37	3980	20.722581035927	1282
37	4015	20.731971187889	1271
37	4052	20.743000920225	772
37	4088	20.753693286564	402
37	4123	20.762555003544	437
37	4160	20.775421331832	873
37	4232	20.786299402776	1310
37	4268	20.795470008329	657
37	4306	20.806996186351	1130
37	4341	20.816156399449	1219
37	4376	20.816688399449	456
37	4415	20.828068545556	735
37	4450	20.836880750876	292
37	4486	20.84437119841	1166
37	4522	20.851779642867	1164
37	4558	20.860122790013	645
37	4594	20.86769969577	289
37	4630	20.875013653622	417
37	4667	20.886851790648	397
37	4702	20.895808310404	642
37	4740	20.906675337827	311
37	4776	20.917175188906	1500
37	4791	20.917555188906	67
37	4828	20.929026545587	1250
37	4864	20.940986487082	1216
37	4899	20.949390249026	1241
37	4936	20.962391197608	1500
37	4951	20.962707197608	54
37	4986	20.970970535203	901
37	5023	20.979355056737	854
37	5059	20.987061956572	927
37	5095	20.99647973367	1438
37	5136	21.004134852267	312
37	5173	21.016477986992	1243
37	5209	21.027057973164	567
37	5244	21.034273692903	772
37	5280	21.044016622992	868
37	5316	21.053893718206	1444
37	5353	21.065878033514	276
37	5388	21.073896902015	663
37	5424	21.082710818634	1220
37	5461	21.094871080869	716
37	5496	21.096217017934	309
37	5539	21.106626650983	1467
37	5574	21.116441360945	682
37	5611	21.12734766748	1204
37	5647	21.137881831787	302
37	5682	21.146774029668	895
37	5718	21.155986104115	822
37	5754	21.165854361382	380
37	5791	21.17692774775	1396
37	5826	21.184416246107	1077
37	5863	21.196873412253	364
37	5900	21.209737907283	455
37	5936	21.221264801854	1500
37	5951	21.221572801854	88
37	5986	21.228431401904	1477
37	6023	21.237454019232	647
37	6059	21.24696782859	805
37	6095	21.256161648451	1477
37	6131	21.265793973033	325
37	6168	21.27723015645	1382
37	6203	21.285821083967	454
37	6240	21.296261725415	335
37	6276	21.304328946342	918
37	6313	21.316602910288	342
37	6348	21.325005085872	1227
37	6385	21.335270725441	1500
37	6400	21.335578725441	29
37	6437	21.345774543064	1261
37	6473	21.356481739462	432
37	6508	21.366065047689	926
37	6544	21.375372613168	1233
37	6580	21.384591649525	1500
37	6595	21.384979649525	82
37	6633	21.395490708379	1336
37	6670	21.407924519712	764
37	6706	21.42027128164	781
37	6741	21.427811628114	932
37	6778	21.440038123534	929
37	6814	21.45043454865	612
37	6850	21.463229541126	1151
37	6885	21.471214744548	302
37	6922	21.483603120128	953
37	6957	21.493049760722	1404
37	6994	21.500152970256	658
37	7030	21.510115312574	405
37	7066	21.517441215328	662
37	7102	21.526032792402	1209
37	7139	21.538161323887	1164
37	7174	21.545289165702	1161
37	7211	21.556017314893	1089
37	7246	21.565069811061	1408
37	7283	21.576516630364	782
37	7319	21.586898094053	822
37	7354	21.594629492418	1483
37	7392	21.60678121632	922
37	7427	21.613632461753	459
37	7463	21.623063061007	1181
37	7500	21.634110226127	346
37	7535	21.642737676427	293
37	7571	21.650615393019	324
37	7607	21.659860331182	410
37	7644	21.672410042558	1137
37	7680	21.683611603681	901
37	7716	21.695424481285	1277
37	7752	21.7026381966	1396
37	7825	21.713275756437	297
37	7861	21.722789227445	1269
37	7898	21.733755667119	888
37	7933	21.741375948897	643
37	7970	21.754132337541	437
37	8006	21.76502553808	1085
37	8042	21.776087259004	314
37	8077	21.785201681081	1249
37	8114	21.795358249684	1347
37	8150	21.804585762191	1333
37	8186	21.81346716324	1247
37	8222	21.822994686952	835
37	8259	21.835608847606	659
37	8294	21.843147342484	1113
37	8331	21.853280553527	804
37	8366	21.862069013501	884
37	8403	21.873854043067	1226
37	8438	21.883319469223	937
37	8474	21.891073951744	1361
37	8510	21.898390106167	947
37	8548	21.908983411715	1500
37	8563	21.909363411715	63
37	8600	21.920617005178	1500
37	8615	21.920797005178	69
37	8650	21.929070076722	1500
37	8665	21.929222076722	40
37	8702	21.936106886624	1474
37	8740	21.947603076449	395
37	8775	21.957082693878	1500
37	8790	21.957378693878	56
37	8826	21.965823241763	296
37	8863	21.974354284297	683
37	8900	21.985178248827	1159
37	8935	21.986111856261	420
37	8973	21.9962546053	1175
37	9013	22.003524094739	404
37	9049	22.011534972173	564
37	9086	22.023681732331	625
37	9122	22.03644291088	1439
37	9157	22.043656550613	1500
37	9172	22.044036550613	58
37	9210	22.055164585299	313
37	9245	22.064670942527	462
37	9282	22.076226613993	850
37	9317	22.08324303858	293
37	9353	22.091228934721	719
36	118	6.374540751152	311
36	163	7.249969346424	367
36	200	7.966676638498	334
36	246	8.937594849744	303
36	288	9.592042500748	341
36	321	9.861785938322	461
36	371	10.757787654527	441
36	422	11.374121638917	296
36	544	12.004016221502	281
36	631	12.926122998607	366
36	716	13.294397047939	270
36	802	14.016689303092	450
36	883	14.304965414423	377
36	968	15.043897119264	391
36	1013	15.470162686839	451
36	1103	16.221083635845	419
36	1231	17.158017725445	452
36	1310	17.653828202037	336
36	1399	18.327481743204	403
36	1489	19.141116705298	452
36	1569	19.767625706644	277
36	1656	20.110158	382
36	1692	20.123343770596	1500
36	1707	20.123571770596	87
36	1742	20.132469141826	1261
36	1779	20.142136698868	1202
36	1816	20.154825780885	291
36	1851	20.162966865993	712
36	1888	20.173257470459	337
36	1923	20.182693214976	928
36	1960	20.195490344049	763
36	1995	20.199695794597	308
36	2069	20.208303085173	1200
36	2105	20.215502118717	1232
36	2142	20.223745475606	678
36	2179	20.235142541088	348
36	2214	20.243673200429	937
36	2250	20.25350395324	603
36	2286	20.261086463248	1338
36	2322	20.270320974272	1238
36	2359	20.281835981526	1393
36	2395	20.293860009268	327
36	2431	20.302751943536	1259
36	2467	20.312040726883	1224
36	2503	20.320883888206	1145
36	2540	20.333712638155	1484
36	2575	20.341877289129	840
36	2612	20.352106493397	1199
36	2648	20.36323714648	445
36	2684	20.375484280088	638
36	2719	20.383793733321	1425
36	2755	20.391713412358	878
36	2793	20.403053896323	907
36	2829	20.41554821476	1123
36	2864	20.422673902576	670
36	2900	20.430295666244	731
36	2937	20.442349894812	899
36	2973	20.452463660373	1500
36	2988	20.452563660373	60
36	3023	20.460554077462	844
36	3061	20.47227329297	618
36	3097	20.484332593437	593
36	3133	20.496666452121	1071
36	3169	20.503814740754	1440
36	3206	20.515395447164	390
36	3242	20.528543645205	1176
36	3278	20.541284653132	1107
36	3313	20.550697646634	1155
36	3349	20.558536572432	1290
36	3386	20.570212056925	1449
36	3422	20.581100527872	919
36	3458	20.591420740591	848
36	3495	20.601944351574	765
36	3530	20.611805194958	1136
36	3566	20.621529828816	1500
36	3581	20.621709828816	67
36	3617	20.6289760907	1287
36	3655	20.640400536048	571
36	3690	20.64905346743	610
36	3726	20.658988602702	1138
36	3762	20.666538341366	1403
36	3799	20.67700759906	1417
36	3834	20.684011773677	797
36	3871	20.694104838674	427
36	3907	20.70221800208	1439
36	3943	20.710352787437	1478
36	3980	20.722581035927	1282
36	4015	20.731971187889	1271
36	4052	20.743000920225	772
36	4088	20.753693286564	402
36	4123	20.762555003544	437
36	4160	20.775421331832	873
36	4232	20.786299402776	1310
36	4268	20.795470008329	657
36	4306	20.806996186351	1130
36	4341	20.816156399449	1219
36	4376	20.816688399449	456
36	4415	20.828068545556	735
36	4450	20.836880750876	292
36	4486	20.84437119841	1166
36	4522	20.851779642867	1164
36	4558	20.860122790013	645
36	4594	20.86769969577	289
36	4630	20.875013653622	417
36	4667	20.886851790648	397
36	4702	20.895808310404	642
36	4740	20.906675337827	311
36	4776	20.917175188906	1500
36	4791	20.917555188906	67
36	4828	20.929026545587	1250
36	4864	20.940986487082	1216
36	4899	20.949390249026	1241
36	4936	20.962391197608	1500
36	4951	20.962707197608	54
36	4986	20.970970535203	901
36	5023	20.979355056737	854
36	5059	20.987061956572	927
36	5095	20.99647973367	1438
36	5136	21.004134852267	312
36	5173	21.016477986992	1243
36	5209	21.027057973164	567
36	5244	21.034273692903	772
36	5280	21.044016622992	868
36	5316	21.053893718206	1444
36	5353	21.065878033514	276
36	5388	21.073896902015	663
36	5424	21.082710818634	1220
36	5461	21.094871080869	716
36	5496	21.096217017934	309
36	5539	21.106626650983	1467
36	5574	21.116441360945	682
36	5611	21.12734766748	1204
36	5647	21.137881831787	302
36	5682	21.146774029668	895
36	5718	21.155986104115	822
36	5754	21.165854361382	380
36	5791	21.17692774775	1396
36	5826	21.184416246107	1077
36	5863	21.196873412253	364
36	5900	21.209737907283	455
36	5936	21.221264801854	1500
36	5951	21.221572801854	88
36	5986	21.228431401904	1477
36	6023	21.237454019232	647
36	6059	21.24696782859	805
36	6095	21.256161648451	1477
36	6131	21.265793973033	325
36	6168	21.27723015645	1382
36	6203	21.285821083967	454
36	6240	21.296261725415	335
36	6276	21.304328946342	918
36	6313	21.316602910288	342
36	6348	21.325005085872	1227
36	6385	21.335270725441	1500
36	6400	21.335578725441	29
36	6437	21.345774543064	1261
36	6473	21.356481739462	432
36	6508	21.366065047689	926
36	6544	21.375372613168	1233
36	6580	21.384591649525	1500
36	6595	21.384979649525	82
36	6633	21.395490708379	1336
36	6670	21.407924519712	764
36	6706	21.42027128164	781
36	6741	21.427811628114	932
36	6778	21.440038123534	929
36	6814	21.45043454865	612
36	6850	21.463229541126	1151
36	6885	21.471214744548	302
36	6922	21.483603120128	953
36	6957	21.493049760722	1404
36	6994	21.500152970256	658
36	7030	21.510115312574	405
36	7066	21.517441215328	662
36	7102	21.526032792402	1209
36	7139	21.538161323887	1164
36	7174	21.545289165702	1161
36	7211	21.556017314893	1089
36	7246	21.565069811061	1408
36	7283	21.576516630364	782
36	7319	21.586898094053	822
36	7354	21.594629492418	1483
36	7392	21.60678121632	922
36	7427	21.613632461753	459
36	7463	21.623063061007	1181
36	7500	21.634110226127	346
36	7535	21.642737676427	293
36	7571	21.650615393019	324
36	7607	21.659860331182	410
36	7644	21.672410042558	1137
36	7680	21.683611603681	901
36	7716	21.695424481285	1277
36	7752	21.7026381966	1396
36	7825	21.713275756437	297
36	7861	21.722789227445	1269
36	7898	21.733755667119	888
36	7933	21.741375948897	643
36	7970	21.754132337541	437
36	8006	21.76502553808	1085
36	8042	21.776087259004	314
36	8077	21.785201681081	1249
36	8114	21.795358249684	1347
36	8150	21.804585762191	1333
36	8186	21.81346716324	1247
36	8222	21.822994686952	835
36	8259	21.835608847606	659
36	8294	21.843147342484	1113
36	8331	21.853280553527	804
36	8366	21.862069013501	884
36	8403	21.873854043067	1226
36	8438	21.883319469223	937
36	8474	21.891073951744	1361
36	8510	21.898390106167	947
36	8548	21.908983411715	1500
36	8563	21.909363411715	63
36	8600	21.920617005178	1500
36	8615	21.920797005178	69
36	8650	21.929070076722	1500
36	8665	21.929222076722	40
36	8702	21.936106886624	1474
36	8740	21.947603076449	395
36	8775	21.957082693878	1500
36	8790	21.957378693878	56
36	8826	21.965823241763	296
36	8863	21.974354284297	683
36	8900	21.985178248827	1159
36	8935	21.986111856261	420
36	8973	21.9962546053	1175
36	9013	22.003524094739	404
36	9049	22.011534972173	564
36	9086	22.023681732331	625
36	9122	22.03644291088	1439
36	9157	22.043656550613	1500
36	9172	22.044036550613	58
36	9210	22.055164585299	313
36	9245	22.064670942527	462
36	9282	22.076226613993	850
36	9317	22.08324303858	293
36	9353	22.091228934721	719
34	113	6.374406751152	1
34	118	6.374540751152	0
34	158	7.249819346424	1
34	163	7.249969346424	0
34	195	7.966534638498	1
34	200	7.966676638498	0
34	241	8.937464849744	1
34	246	8.937594849744	0
34	283	9.591900500748	1
34	288	9.592042500748	0
34	316	9.861603938322	1
34	321	9.861785938322	0
34	365	10.757613654527	1
34	371	10.757787654527	0
34	416	11.373995638917	1
34	422	11.374121638917	0
34	538	12.003894221502	1
34	544	12.004016221502	0
34	625	12.925972998607	1
34	631	12.926122998607	0
34	710	13.294279047939	1
34	716	13.294397047939	0
34	796	14.016511303092	1
34	802	14.016689303092	0
34	877	14.304811414423	1
34	883	14.304965414423	0
34	962	15.043739119264	1
34	968	15.043897119264	0
34	1007	15.469984686839	1
34	1013	15.470162686839	0
34	1097	16.220913635845	1
34	1103	16.221083635845	0
34	1225	17.157839725445	1
34	1231	17.158017725445	0
34	1304	17.653686202037	1
34	1310	17.653828202037	0
34	1393	18.327319743204	1
34	1399	18.327481743204	0
34	1483	19.140938705298	1
34	1489	19.141116705298	0
[...]
102	9672	26.923350704433	329
102	9716	27.816103079917	317
102	9756	28.37484242175	445
102	9792	28.936977507206	299
102	9831	29.386186363055	363
102	9865	29.755374198476	436
102	9909	30.690167356873	304
102	9952	31.470162632162	299
102	9991	32.068084099088	407
102	10030	32.721288983654	410
102	10071	33.380478458697	303
102	10107	33.968442980106	280
102	10150	34.753777951254	358
102	10189	35.144170970657	319
102	10227	35.92619156717	419
102	10271	36.872011817468	377
102	10315	37.762820796118	464
102	10360	38.74480305302	363
102	10400	39.258317341965	265
102	10445	40.237432298289	442
102	10478	40.581220528329	309
102	10521	41.38438457922	459
102	10554	41.678801830802	412
102	10594	42.136620662485	266
102	10632	42.920490775879	292
102	10670	43.261730281394	406
102	10715	44.261565141974	370
102	10759	45.124625866614	335
102	10791	45.332404520804	441
102	10835	46.27020332534	315
102	10879	47.137384643251	309
102	10911	47.363017140452	269
102	10954	48.119457573414	323
102	10996	49.070187193126	325
102	11035	49.744515407432	397
102	11067	49.979679753355	350
102	11105	50.204200592422	323
102	11141	50.836095296973	457
102	11176	51.061932284201	316
102	11216	51.889267763535	445
102	11258	52.585651678753	397
102	11303	53.530492950917	345
102	11348	54.527145186194	337
102	11380	54.785352448843	351
102	11421	55.345564026611	442
102	11454	55.647343243193	281
102	11494	56.100751774296	357
102	11528	56.514210302266	441
102	11562	56.990272520731	290
102	11600	57.201111483392	385
102	11641	58.060085623343	391
102	11676	58.358183209101	295
102	11710	58.741628085142	362
102	11754	59.607391175906	280
102	11796	60.328417226615	416
102	11840	61.281715463505	304
102	11881	62.034941952181	366
102	11919	62.685323906013	434
102	11960	63.214945858192	374
102	12004	64.103848264929	389
102	12041	64.864556778975	462
102	12084	65.694008805698	353
102	12117	65.974034948932	423
102	12162	66.947658882727	368
102	12201	67.384402752668	316
102	12245	68.285870406994	302
102	12290	69.261232610424	386
102	12324	69.62345743934	349
102	12357	69.95442884444	427
102	12402	70.936931837043	366
102	12441	71.382666196956	349
102	12474	71.671076034539	331
102	12518	72.530098564555	390
102	12550	72.731774269798	460
102	12589	73.196094725533	360
102	12623	73.585518751979	338
102	12656	73.840651120159	426
102	12698	74.587600277335	322
102	12736	75.008920061745	323
102	12770	75.228581681818	330
102	12804	75.643552905261	343
102	12849	76.633783616442	411
102	12881	76.882035892336	363
102	12925	77.796209627394	393
102	12967	78.46864192942	274
102	13001	78.866099856022	405
102	13043	79.559640264948	367
102	13081	80.071303068356	435
102	13116	80.379705813683	327
102	13161	81.303273618442	370
102	13204	82.182278840996	455
102	13246	83.075715570182	300
102	13282	83.496777292246	276
102	13325	84.235112619309	356
102	13358	84.549955473411	415
102	13400	85.232883009383	439
102	13436	85.871942420525	373
102	13476	86.380525675139	353
102	13508	86.588009821468	298
102	13542	86.923893420961	390
102	13583	87.578023616598	312
102	13624	88.19671136442	303
102	13660	88.763293171428	339
102	13692	88.993340654087	395
102	13731	89.304603285466	268
102	13771	90.036008970384	416
102	13805	90.286156060335	400
102	13842	90.973761433334	327
102	13882	91.416395687039	429
102	13917	91.907435511985	318
102	13957	92.42395444373	347
102	14000	93.260390752092	352
102	14034	93.673143142125	381
102	14075	94.24103930506	360
102	14120	95.224472355692	373
102	14154	95.676482037365	349
102	14196	96.386726273906	264
102	14239	97.18518451192	389
102	14281	98.025795391979	306
102	14315	98.242906338571	375
102	14348	98.554690957197	341
102	14389	99.130713917602	428
102	14424	99.636917291557	405
102	14469	100.603389864725	267
102	14512	101.497097494269	314
102	14555	102.294439987715	290
102	14589	102.696418547321	292
102	14632	103.465950908301	401
102	14665	103.799863562796	295
102	14709	104.607774155372	325
102	14750	105.299626063811	433
102	14794	106.195488521275	386
102	14832	106.917507999707	407
102	14871	107.361497359287	264
102	14906	107.881864185135	293
102	14948	108.50259349877	275
102	14982	108.909040871914	284
102	15022	109.444946991034	344
102	15061	110.021940406325	419
102	15097	110.458609986367	296
102	15141	111.306855653444	309
102	15181	112.0871406391	400
102	15213	112.100082	164
102	15278	112.853502522379	322
102	15323	113.818994974904	318
102	15364	114.474787808555	395
102	15397	114.704108942144	301
102	15429	114.971190029606	452
102	15468	115.390622595393	437
102	15512	116.289250136448	351
102	15553	117.047637192875	324
102	15590	117.502360344496	385
102	15624	117.956791252959	416
102	15666	118.652847956213	285
102	15710	119.562706478347	374
102	15748	120.055125699691	344
102	15793	121.047396513942	269
102	15827	121.267572747856	342
102	15861	121.627732654354	362
102	15894	121.925409135227	391
102	15939	122.925304202276	421
102	15983	123.879794644789	451
102	16027	124.768072298858	409
102	16070	125.576251584943	281
102	16112	126.232170956837	439
102	16149	126.958015765847	446
102	16190	127.56799046674	398
102	16233	128.329532539564	282
102	16273	129.093081770716	364
102	16318	130.019412540804	403
102	16358	130.853371663483	275
102	16402	131.758358267698	382
102	16444	132.444406555691	421
102	16488	133.394509030817	343
102	16533	134.31623400745	397
102	16567	134.758504555218	301
102	16610	135.58698858256	419
102	16653	136.301203284351	339
102	16687	136.758385629301	353
102	16728	137.342269779125	414
102	16768	138.0023529343	327
102	16805	138.572792973525	325
102	16846	139.158883193755	290
102	16883	139.898985489651	463
102	16923	140.300991129503	311
102	16966	141.10860720985	387
102	16999	141.428198039224	361
102	17032	141.777715802874	272
102	17068	142.069589689226	453
102	17109	142.925558252325	364
102	17151	143.627743793811	397
102	17183	143.828600740308	296
102	17223	144.386022141394	384
103	460	11.499745281919	0.000166
103	501	11.848775157554	0.00013
103	588	12.308115960852	0.000158
103	673	13.066212917188	0.00015
103	758	13.72237033795	0.00015
103	844	14.124991619002	0.000138
103	923	14.619983751582	0.00015
103	1052	15.601400624224	0.000158
103	1140	16.253523716738	0.00013
103	1184	16.987500017737	0.000178
103	1270	17.333993108511	0.000118
103	1360	18.122168324862	0.000138
103	1439	18.679908627686	0.000178
103	1528	19.344918928398	0.00017
103	1608	19.92477294564	0.00013
103	2033	20.207063633611	0.00013
103	4195	20.777832414556	0.000138
103	7787	21.704891383743	0.000122
103	9398	22.512353342034	0.000158
103	9439	23.192507634441	0.000142
103	9481	24.091365097873	0.000154
103	9517	24.439747411666	0.000122
103	9551	24.803053058599	0.00017
103	9595	25.785574797019	0.000154
103	9637	26.447742334231	0.000154
103	9672	26.923350704433	0.000138
103	9716	27.816103079917	0.000134
103	9756	28.37484242175	0.000178
103	9792	28.936977507206	0.00013
103	9831	29.386186363055	0.00015
103	9865	29.755374198476	0.000174
103	9909	30.690167356873	0.00013
103	9952	31.470162632162	0.00013
103	9991	32.068084099088	0.000166
103	10030	32.721288983654	0.000166
103	10071	33.380478458697	0.00013
103	10107	33.968442980106	0.000122
103	10150	34.753777951254	0.00015
103	10189	35.144170970657	0.000134
103	10227	35.92619156717	0.00017
103	10271	36.872011817468	0.000154
103	10315	37.762820796118	0.000182
103	10360	38.74480305302	0.00015
103	10400	39.258317341965	0.000118
103	10445	40.237432298289	0.000178
103	10478	40.581220528329	0.00013
103	10521	41.38438457922	0.000182
103	10554	41.678801830802	0.000166
103	10594	42.136620662485	0.000118
103	10632	42.920490775879	0.000126
103	10670	43.261730281394	0.000166
103	10715	44.261565141974	0.000154
103	10759	45.124625866614	0.000142
103	10791	45.332404520804	0.000174
103	10835	46.27020332534	0.000134
103	10879	47.137384643251	0.00013
103	10911	47.363017140452	0.000118
103	10954	48.119457573414	0.000138
103	10996	49.070187193126	0.000138
103	11035	49.744515407432	0.000162
103	11067	49.979679753355	0.000146
103	11105	50.204200592422	0.000138
103	11141	50.836095296973	0.000182
103	11176	51.061932284201	0.000134
103	11216	51.889267763535	0.000178
103	11258	52.585651678753	0.000162
103	11303	53.530492950917	0.000142
103	11348	54.527145186194	0.000142
103	11380	54.785352448843	0.000146
103	11421	55.345564026611	0.000178
103	11454	55.647343243193	0.000122
103	11494	56.100751774296	0.000146
103	11528	56.514210302266	0.000174
103	11562	56.990272520731	0.000126
103	11600	57.201111483392	0.000158
103	11641	58.060085623343	0.000158
103	11676	58.358183209101	0.000126
103	11710	58.741628085142	0.00015
103	11754	59.607391175906	0.000122
103	11796	60.328417226615	0.000166
103	11840	61.281715463505	0.00013
103	11881	62.034941952181	0.00015
103	11919	62.685323906013	0.000174
103	11960	63.214945858192	0.000154
103	12004	64.103848264929	0.000158
103	12041	64.864556778975	0.000182
103	12084	65.694008805698	0.000146
103	12117	65.974034948932	0.00017
103	12162	66.947658882727	0.00015
103	12201	67.384402752668	0.000134
103	12245	68.285870406994	0.00013
103	12290	69.261232610424	0.000158
103	12324	69.62345743934	0.000146
103	12357	69.95442884444	0.00017
103	12402	70.936931837043	0.00015
103	12441	71.382666196956	0.000146
103	12474	71.671076034539	0.000138
103	12518	72.530098564555	0.000158
103	12550	72.731774269798	0.000182
103	12589	73.196094725533	0.00015
103	12623	73.585518751979	0.000142
103	12656	73.840651120159	0.00017
103	12698	74.587600277335	0.000138
103	12736	75.008920061745	0.000138
103	12770	75.228581681818	0.000138
103	12804	75.643552905261	0.000142
103	12849	76.633783616442	0.000166
103	12881	76.882035892336	0.00015
103	12925	77.796209627394	0.000158
103	12967	78.46864192942	0.000122
103	13001	78.866099856022	0.000162
103	13043	79.559640264948	0.00015
103	13081	80.071303068356	0.000174
103	13116	80.379705813683	0.000138
103	13161	81.303273618442	0.000154
103	13204	82.182278840996	0.000182
103	13246	83.075715570182	0.00013
103	13282	83.496777292246	0.000122
103	13325	84.235112619309	0.000146
103	13358	84.549955473411	0.000166
103	13400	85.232883009383	0.000174
103	13436	85.871942420525	0.000154
103	13476	86.380525675139	0.000146
103	13508	86.588009821468	0.00013
103	13542	86.923893420961	0.000158
103	13583	87.578023616598	0.000134
103	13624	88.19671136442	0.00013
103	13660	88.763293171428	0.000142
103	13692	88.993340654087	0.000162
103	13731	89.304603285466	0.000118
103	13771	90.036008970384	0.000166
103	13805	90.286156060335	0.000162
103	13842	90.973761433334	0.000138
103	13882	91.416395687039	0.00017
103	13917	91.907435511985	0.000134
103	13957	92.42395444373	0.000146
103	14000	93.260390752092	0.000146
103	14034	93.673143142125	0.000154
103	14075	94.24103930506	0.00015
103	14120	95.224472355692	0.000154
103	14154	95.676482037365	0.000146
103	14196	96.386726273906	0.000118
103	14239	97.18518451192	0.000158
103	14281	98.025795391979	0.00013
103	14315	98.242906338571	0.000154
103	14348	98.554690957197	0.000142
103	14389	99.130713917602	0.00017
103	14424	99.636917291557	0.000162
103	14469	100.603389864725	0.000118
103	14512	101.497097494269	0.000134
103	14555	102.294439987715	0.000126
103	14589	102.696418547321	0.000126
103	14632	103.465950908301	0.000162
103	14665	103.799863562796	0.000126
103	14709	104.607774155372	0.000138
103	14750	105.299626063811	0.000174
103	14794	106.195488521275	0.000158
103	14832	106.917507999707	0.000166
103	14871	107.361497359287	0.000118
103	14906	107.881864185135	0.000126
103	14948	108.50259349877	0.000122
103	14982	108.909040871914	0.000122
103	15022	109.444946991034	0.000142
103	15061	110.021940406325	0.00017
103	15097	110.458609986367	0.000126
103	15141	111.306855653444	0.00013
103	15181	112.0871406391	0.000162
103	15213	112.100082	8.2e-005
103	15278	112.853502522379	0.000138
103	15323	113.818994974904	0.000134
103	15364	114.474787808555	0.000162
103	15397	114.704108942144	0.00013
103	15429	114.971190029606	0.000178
103	15468	115.390622595393	0.000174
103	15512	116.289250136448	0.000146
103	15553	117.047637192875	0.000138
103	15590	117.502360344496	0.000158
103	15624	117.956791252959	0.000166
103	15666	118.652847956213	0.000122
103	15710	119.562706478347	0.000154
103	15748	120.055125699691	0.000142
103	15793	121.047396513942	0.000118
103	15827	121.267572747856	0.000142
103	15861	121.627732654354	0.00015
103	15894	121.925409135227	0.000158
103	15939	122.925304202276	0.00017
103	15983	123.879794644789	0.000178
103	16027	124.768072298858	0.000166
103	16070	125.576251584943	0.000122
103	16112	126.232170956837	0.000174
103	16149	126.958015765847	0.000178
103	16190	127.56799046674	0.000162
103	16233	128.329532539564	0.000122
103	16273	129.093081770716	0.00015
103	16318	130.019412540804	0.000162
103	16358	130.853371663483	0.000122
103	16402	131.758358267698	0.000158
103	16444	132.444406555691	0.00017
103	16488	133.394509030817	0.000142
103	16533	134.31623400745	0.000162
103	16567	134.758504555218	0.00013
103	16610	135.58698858256	0.00017
103	16653	136.301203284351	0.000142
103	16687	136.758385629301	0.000146
103	16728	137.342269779125	0.000166
103	16768	138.0023529343	0.000138
103	16805	138.572792973525	0.000138
103	16846	139.158883193755	0.000126
103	16883	139.898985489651	0.000182
103	16923	140.300991129503	0.000134
103	16966	141.10860720985	0.000158
103	16999	141.428198039224	0.00015
103	17032	141.777715802874	0.000118
103	17068	142.069589689226	0.000178
103	17109	142.925558252325	0.00015
103	17151	143.627743793811	0.000162
103	17183	143.828600740308	0.000126
103	17223	144.386022141394	0.000158
112	1668	20.110158424876	1
112	1719	20.123572195472	2
112	1754	20.132469566702	3
112	1791	20.142137123744	4
112	1828	20.154826205761	5
112	1863	20.162967290869	6
112	1900	20.173257895335	7
112	1935	20.182693639852	8
112	1972	20.195490768925	9
112	2081	20.208303509718	10
112	2117	20.215502543262	11
112	2154	20.223745900151	12
112	2191	20.235142965633	13
112	2226	20.243673624974	14
112	2262	20.253504377785	15
112	2298	20.261086887793	16
112	2334	20.270321398817	17
112	2371	20.281836406071	18
112	2407	20.293860433813	19
112	2443	20.302752367799	20
112	2479	20.312041151146	21
112	2515	20.320884312469	22
112	2552	20.333713062418	23
112	2587	20.341877713392	24
112	2624	20.35210691766	25
112	2660	20.363237570743	26
112	2696	20.375484704351	27
112	2731	20.383794157584	28
112	2767	20.391713836621	29
112	2805	20.403054320354	30
112	2841	20.415548638791	31
112	2876	20.422674326607	32
112	2912	20.430296090275	33
112	2949	20.442350318843	34
112	3000	20.452564084404	35
112	3035	20.460554501493	36
112	3073	20.472273717001	37
112	3109	20.484333017468	38
112	3145	20.496666876152	39
112	3181	20.503815164604	40
112	3218	20.515395871014	41
112	3254	20.528544069055	42
112	3290	20.541285076982	43
112	3325	20.550698070484	44
112	3361	20.558536996282	45
112	3398	20.570212480775	46
112	3434	20.581100951722	47
112	3470	20.591421164441	48
112	3507	20.601944775293	49
112	3542	20.611805618677	50
112	3593	20.621710252535	51
112	3629	20.628976514419	52
112	3667	20.640400959767	53
112	3702	20.649053891149	54
112	3738	20.658989026421	55
112	3774	20.666538765085	56
112	3811	20.677008022779	57
112	3846	20.684012197396	58
112	3883	20.694105262393	59
112	3919	20.702218425719	60
112	3955	20.710353211076	61
112	3992	20.722581459566	62
112	4027	20.731971611528	63
112	4064	20.743001343864	64
112	4100	20.753693710203	65
112	4135	20.762555427183	66
112	4172	20.775421755471	67
112	4244	20.786299826415	68
112	4280	20.795470431968	69
112	4318	20.806996609959	70
112	4353	20.816156823057	71
112	4427	20.828068969164	72
112	4462	20.836881174484	73
112	4498	20.844371622018	74
112	4534	20.851780066475	75
112	4570	20.860123213621	76
112	4606	20.867700119378	77
112	4642	20.87501407723	78
112	4679	20.886852214256	79
112	4714	20.895808734012	80
112	4752	20.906675761454	81
112	4803	20.917555612533	82
112	4840	20.929026969214	83
112	4876	20.940986910709	84
112	4911	20.949390672653	85
112	4963	20.962707621235	86
112	4998	20.97097095883	87
112	5035	20.979355480364	88
112	5071	20.987062380199	89
112	5107	20.996480157297	90
112	5148	21.004135275963	91
112	5185	21.016478410688	92
112	5221	21.02705839686	93
112	5256	21.034274116599	94
112	5292	21.044017046688	95
112	5328	21.053894141902	96
112	5365	21.06587845721	97
112	5400	21.073897325711	98
112	5436	21.08271124233	99
112	5473	21.094871504565	100
112	5551	21.106627074799	101
112	5586	21.116441784761	102
112	5623	21.127348091296	103
112	5659	21.137882255603	104
112	5694	21.146774453484	105
112	5730	21.155986527931	106
112	5766	21.165854785198	107
112	5803	21.176928171566	108
112	5838	21.184416669923	109
112	5875	21.196873836069	110
112	5912	21.20973833127	111
112	5963	21.221573225841	112
112	5998	21.228431825891	113
112	6035	21.237454443219	114
112	6071	21.246968252577	115
112	6107	21.256162072438	116
112	6143	21.26579439702	117
112	6180	21.277230580437	118
112	6215	21.285821507954	119
112	6252	21.296262149402	120
112	6288	21.304329370548	121
112	6325	21.316603334494	122
112	6360	21.325005510078	123
112	6412	21.335579149647	124
112	6449	21.34577496727	125
112	6485	21.356482163668	126
112	6520	21.366065471895	127
112	6556	21.375373037374	128
112	6607	21.384980073731	129
112	6645	21.395491132585	130
112	6682	21.407924944188	131
112	6718	21.420271706116	132
112	6753	21.42781205259	133
112	6790	21.44003854801	134
112	6826	21.450434973126	135
112	6862	21.463229965602	136
112	6897	21.471215169024	137
112	6934	21.483603544604	138
112	6969	21.493050185198	139
112	7006	21.500153394732	140
112	7042	21.510115737368	141
112	7078	21.517441640122	142
112	7114	21.526033217196	143
112	7151	21.538161748681	144
112	7186	21.545289590496	145
112	7223	21.556017739687	146
112	7258	21.565070235855	147
112	7295	21.576517055158	148
112	7331	21.586898518847	149
112	7366	21.594629917212	150
112	7404	21.606781641485	151
112	7439	21.613632886918	152
112	7475	21.623063486172	153
112	7512	21.634110651292	154
112	7547	21.642738101592	155
112	7583	21.650615818184	156
112	7619	21.659860756347	157
112	7656	21.672410467723	158
112	7692	21.683612028846	159
112	7728	21.69542490645	160
112	7764	21.702638622185	161
112	7837	21.713276182022	162
112	7873	21.72278965303	163
112	7910	21.733756092704	164
112	7945	21.741376374482	165
112	7982	21.754132763126	166
112	8018	21.765025963665	167
112	8054	21.776087684589	168
112	8089	21.785202106666	169
112	8126	21.795358675269	170
112	8162	21.804586188246	171
112	8198	21.813467589295	172
112	8234	21.822995113007	173
112	8271	21.835609273661	174
112	8306	21.843147768539	175
112	8343	21.853280979582	176
112	8378	21.862069439556	177
112	8415	21.873854469122	178
112	8450	21.883319895278	179
112	8486	21.891074377799	180
112	8522	21.898390532222	181
112	8575	21.909363838289	182
112	8627	21.920797431752	183
112	8677	21.929222503296	184
112	8714	21.936107313198	185
112	8752	21.947603503023	186
112	8802	21.957379120452	187
112	8838	21.965823668337	188
112	8875	21.974354710871	189
112	8912	21.985178675401	190
112	8985	21.996255031874	191
112	9025	22.00352452188	192
112	9061	22.011535399314	193
112	9098	22.023682159472	194
112	9134	22.036443338021	195
112	9184	22.044036977754	196
112	9222	22.05516501244	197
112	9257	22.064671369668	198
112	9294	22.076227041134	199
112	9329	22.083243465721	200
112	9365	22.091229361862	201
112	15233	112.100082259334	202
113	15220	112.100082083359	1
114	15220	112.100082083359	1
115	15221	112.100082083359	108
116	15223	112.100082083359	128
117	15223	112.100082083359	128
118	15226	112.100082083359	136
119	15226	112.100082083359	164
120	15226	112.100082083359	1
120	15235	112.100392083359	0
121	15226	112.100082083359	13
122	15226	112.100082083359	1
122	15234	112.100392083359	0
123	15235	112.100392083359	164
124	15235	112.100392083359	0.00031
125	15235	112.100392083359	1
125	15240	112.100474083359	0
126	15235	112.100392083359	24000000
127	15235	112.100392083359	164
128	15235	112.100392083359	1
128	15240	112.100474083359	0
129	15236	112.100392083359	1
129	15237	112.100392083359	2
129	15240	112.100474083359	1
129	15241	112.100474083359	0
130	15240	112.100474083359	164
131	15240	112.100474083359	164
132	15240	112.100474083359	164
133	15240	112.100474083359	8.2e-005

