version 2
run Static-0-20260204-09:50:33-26056
attr configname Static
attr datetime 20260204-09:50:33
attr experiment Static
attr inifile omnetpp.ini
attr iterationvars ""
attr iterationvarsf ""
attr measurement ""
attr network AODVNetwork
attr processid 26056
attr repetition 0
attr replication #0
attr resultdir results
attr runnumber 0
attr seedset 0
param *.host[*].wlan[*].radio.transmitter.communicationRange 250m
param *.host[0].app[0].destAddr "\"host[1](ipv4)\""
param **.wlan[*].typename "\"AckingWirelessInterface\""
param **.wlan[*].bitrate 2Mbps
param **.wlan[*].mac.headerLength 23B
param **.wlan[*].radio.typename "\"UnitDiskRadio\""
param **.wlan[*].radio.transmitter.headerLength 96b
param **.wlan[*].radio.transmitter.communicationRange 250m
param **.wlan[*].radio.transmitter.interferenceRange 0m
param **.wlan[*].radio.transmitter.detectionRange 0m
param **.wlan[*].radio.receiver.ignoreInterference true
param *.numHosts 20
param **.host[*].mobility.typename "\"StationaryMobility\""
param **.mobility.constraintAreaMinZ 0m
param **.mobility.constraintAreaMaxZ 0m
param **.mobility.constraintAreaMinX 0m
param **.mobility.constraintAreaMinY 0m
param **.mobility.constraintAreaMaxX 600m
param **.mobility.constraintAreaMaxY 600m
param *.host[0].numApps 1
param *.host[0].app[0].typename "\"PingApp\""
param *.host[0].app[0].startTime uniform(1s,5s)
param *.host[0].app[0].printPing true
param **.wlan[*].bitrate 2Mbps
param **.hasStatus true

vector 0 AODVNetwork.host[0].wlan[0].radio radioMode:vector ETV
attr interpolationmode sample-hold
attr source radioModeChanged
attr title "Radio mode, vector"
vector 1 AODVNetwork.host[1].wlan[0].radio radioMode:vector ETV
attr interpolationmode sample-hold
attr source radioModeChanged
attr title "Radio mode, vector"
vector 2 AODVNetwork.host[2].wlan[0].radio radioMode:vector ETV
attr interpolationmode sample-hold
attr source radioModeChanged
attr title "Radio mode, vector"
vector 3 AODVNetwork.host[3].wlan[0].radio radioMode:vector ETV
attr interpolationmode sample-hold
attr source radioModeChanged
attr title "Radio mode, vector"
vector 4 AODVNetwork.host[4].wlan[0].radio radioMode:vector ETV
attr interpolationmode sample-hold
attr source radioModeChanged
attr title "Radio mode, vector"
vector 5 AODVNetwork.host[5].wlan[0].radio radioMode:vector ETV
attr interpolationmode sample-hold
attr source radioModeChanged
attr title "Radio mode, vector"
vector 6 AODVNetwork.host[6].wlan[0].radio radioMode:vector ETV
attr interpolationmode sample-hold
attr source radioModeChanged
attr title "Radio mode, vector"
vector 7 AODVNetwork.host[7].wlan[0].radio radioMode:vector ETV
attr interpolationmode sample-hold
attr source radioModeChanged
attr title "Radio mode, vector"
vector 8 AODVNetwork.host[8].wlan[0].radio radioMode:vector ETV
attr interpolationmode sample-hold
attr source radioModeChanged
attr title "Radio mode, vector"
vector 9 AODVNetwork.host[9].wlan[0].radio radioMode:vector ETV
attr interpolationmode sample-hold
attr source radioModeChanged
attr title "Radio mode, vector"
vector 10 AODVNetwork.host[10].wlan[0].radio radioMode:vector ETV
attr interpolationmode sample-hold
attr source radioModeChanged
attr title "Radio mode, vector"
vector 11 AODVNetwork.host[11].wlan[0].radio radioMode:vector ETV
attr interpolationmode sample-hold
attr source radioModeChanged
attr title "Radio mode, vector"
vector 12 AODVNetwork.host[12].wlan[0].radio radioMode:vector ETV
attr interpolationmode sample-hold
attr source radioModeChanged
attr title "Radio mode, vector"
vector 13 AODVNetwork.host[13].wlan[0].radio radioMode:vector ETV
attr interpolationmode sample-hold
attr source radioModeChanged
attr title "Radio mode, vector"
vector 14 AODVNetwork.host[14].wlan[0].radio radioMode:vector ETV
attr interpolationmode sample-hold
attr source radioModeChanged
attr title "Radio mode, vector"
vector 15 AODVNetwork.host[15].wlan[0].radio radioMode:vector ETV
attr interpolationmode sample-hold
attr source radioModeChanged
attr title "Radio mode, vector"
vector 16 AODVNetwork.host[16].wlan[0].radio radioMode:vector ETV
attr interpolationmode sample-hold
attr source radioModeChanged
attr title "Radio mode, vector"
vector 17 AODVNetwork.host[17].wlan[0].radio radioMode:vector ETV
attr interpolationmode sample-hold
attr source radioModeChanged
attr title "Radio mode, vector"
vector 18 AODVNetwork.host[18].wlan[0].radio radioMode:vector ETV
attr interpolationmode sample-hold
attr source radioModeChanged
attr title "Radio mode, vector"
vector 19 AODVNetwork.host[19].wlan[0].radio radioMode:vector ETV
attr interpolationmode sample-hold
attr source radioModeChanged
attr title "Radio mode, vector"
vector 20 AODVNetwork.host[0].wlan[0].radio receptionState:vector ETV
attr interpolationmode sample-hold
attr source receptionStateChanged
attr title "Radio reception state, vector"
vector 21 AODVNetwork.host[0].wlan[0].radio transmissionState:vector ETV
attr interpolationmode sample-hold
attr source transmissionStateChanged
attr title "Radio transmission state, vector"
vector 22 AODVNetwork.host[1].wlan[0].radio receptionState:vector ETV
attr interpolationmode sample-hold
attr source receptionStateChanged
attr title "Radio reception state, vector"
vector 23 AODVNetwork.host[1].wlan[0].radio transmissionState:vector ETV
attr interpolationmode sample-hold
attr source transmissionStateChanged
attr title "Radio transmission state, vector"
vector 24 AODVNetwork.host[2].wlan[0].radio receptionState:vector ETV
attr interpolationmode sample-hold
attr source receptionStateChanged
attr title "Radio reception state, vector"
vector 25 AODVNetwork.host[2].wlan[0].radio transmissionState:vector ETV
attr interpolationmode sample-hold
attr source transmissionStateChanged
attr title "Radio transmission state, vector"
vector 26 AODVNetwork.host[3].wlan[0].radio receptionState:vector ETV
attr interpolationmode sample-hold
attr source receptionStateChanged
attr title "Radio reception state, vector"
vector 27 AODVNetwork.host[3].wlan[0].radio transmissionState:vector ETV
attr interpolationmode sample-hold
attr source transmissionStateChanged
attr title "Radio transmission state, vector"
vector 28 AODVNetwork.host[4].wlan[0].radio receptionState:vector ETV
attr interpolationmode sample-hold
attr source receptionStateChanged
attr title "Radio reception state, vector"
vector 29 AODVNetwork.host[4].wlan[0].radio transmissionState:vector ETV
attr interpolationmode sample-hold
attr source transmissionStateChanged
attr title "Radio transmission state, vector"
vector 30 AODVNetwork.host[5].wlan[0].radio receptionState:vector ETV
attr interpolationmode sample-hold
attr source receptionStateChanged
attr title "Radio reception state, vector"
vector 31 AODVNetwork.host[5].wlan[0].radio transmissionState:vector ETV
attr interpolationmode sample-hold
attr source transmissionStateChanged
attr title "Radio transmission state, vector"
vector 32 AODVNetwork.host[6].wlan[0].radio receptionState:vector ETV
attr interpolationmode sample-hold
attr source receptionStateChanged
attr title "Radio reception state, vector"
vector 33 AODVNetwork.host[6].wlan[0].radio transmissionState:vector ETV
attr interpolationmode sample-hold
attr source transmissionStateChanged
attr title "Radio transmission state, vector"
vector 34 AODVNetwork.host[7].wlan[0].radio receptionState:vector ETV
attr interpolationmode sample-hold
attr source receptionStateChanged
attr title "Radio reception state, vector"
vector 35 AODVNetwork.host[7].wlan[0].radio transmissionState:vector ETV
attr interpolationmode sample-hold
attr source transmissionStateChanged
attr title "Radio transmission state, vector"
vector 36 AODVNetwork.host[8].wlan[0].radio receptionState:vector ETV
attr interpolationmode sample-hold
attr source receptionStateChanged
attr title "Radio reception state, vector"
vector 37 AODVNetwork.host[8].wlan[0].radio transmissionState:vector ETV
attr interpolationmode sample-hold
attr source transmissionStateChanged
attr title "Radio transmission state, vector"
vector 38 AODVNetwork.host[9].wlan[0].radio receptionState:vector ETV
attr interpolationmode sample-hold
attr source receptionStateChanged
attr title "Radio reception state, vector"
vector 39 AODVNetwork.host[9].wlan[0].radio transmissionState:vector ETV
attr interpolationmode sample-hold
attr source transmissionStateChanged
attr title "Radio transmission state, vector"
vector 40 AODVNetwork.host[10].wlan[0].radio receptionState:vector ETV
attr interpolationmode sample-hold
attr source receptionStateChanged
attr title "Radio reception state, vector"
vector 41 AODVNetwork.host[10].wlan[0].radio transmissionState:vector ETV
attr interpolationmode sample-hold
attr source transmissionStateChanged
attr title "Radio transmission state, vector"
vector 42 AODVNetwork.host[11].wlan[0].radio receptionState:vector ETV
attr interpolationmode sample-hold
attr source receptionStateChanged
attr title "Radio reception state, vector"
vector 43 AODVNetwork.host[11].wlan[0].radio transmissionState:vector ETV
attr interpolationmode sample-hold
attr source transmissionStateChanged
attr title "Radio transmission state, vector"
vector 44 AODVNetwork.host[12].wlan[0].radio receptionState:vector ETV
attr interpolationmode sample-hold
attr source receptionStateChanged
attr title "Radio reception state, vector"
vector 45 AODVNetwork.host[12].wlan[0].radio transmissionState:vector ETV
attr interpolationmode sample-hold
attr source transmissionStateChanged
attr title "Radio transmission state, vector"
vector 46 AODVNetwork.host[13].wlan[0].radio receptionState:vector ETV
attr interpolationmode sample-hold
attr source receptionStateChanged
attr title "Radio reception state, vector"
vector 47 AODVNetwork.host[13].wlan[0].radio transmissionState:vector ETV
attr interpolationmode sample-hold
attr source transmissionStateChanged
attr title "Radio transmission state, vector"
vector 48 AODVNetwork.host[14].wlan[0].radio receptionState:vector ETV
attr interpolationmode sample-hold
attr source receptionStateChanged
attr title "Radio reception state, vector"
vector 49 AODVNetwork.host[14].wlan[0].radio transmissionState:vector ETV
attr interpolationmode sample-hold
attr source transmissionStateChanged
attr title "Radio transmission state, vector"
vector 50 AODVNetwork.host[15].wlan[0].radio receptionState:vector ETV
attr interpolationmode sample-hold
attr source receptionStateChanged
attr title "Radio reception state, vector"
vector 51 AODVNetwork.host[15].wlan[0].radio transmissionState:vector ETV
attr interpolationmode sample-hold
attr source transmissionStateChanged
attr title "Radio transmission state, vector"
vector 52 AODVNetwork.host[16].wlan[0].radio receptionState:vector ETV
attr interpolationmode sample-hold
attr source receptionStateChanged
attr title "Radio reception state, vector"
vector 53 AODVNetwork.host[16].wlan[0].radio transmissionState:vector ETV
attr interpolationmode sample-hold
attr source transmissionStateChanged
attr title "Radio transmission state, vector"
vector 54 AODVNetwork.host[17].wlan[0].radio receptionState:vector ETV
attr interpolationmode sample-hold
attr source receptionStateChanged
attr title "Radio reception state, vector"
vector 55 AODVNetwork.host[17].wlan[0].radio transmissionState:vector ETV
attr interpolationmode sample-hold
attr source transmissionStateChanged
attr title "Radio transmission state, vector"
vector 56 AODVNetwork.host[18].wlan[0].radio receptionState:vector ETV
attr interpolationmode sample-hold
attr source receptionStateChanged
attr title "Radio reception state, vector"
vector 57 AODVNetwork.host[18].wlan[0].radio transmissionState:vector ETV
attr interpolationmode sample-hold
attr source transmissionStateChanged
attr title "Radio transmission state, vector"
vector 58 AODVNetwork.host[19].wlan[0].radio receptionState:vector ETV
attr interpolationmode sample-hold
attr source receptionStateChanged
attr title "Radio reception state, vector"
vector 59 AODVNetwork.host[19].wlan[0].radio transmissionState:vector ETV
attr interpolationmode sample-hold
attr source transmissionStateChanged
attr title "Radio transmission state, vector"
vector 60 AODVNetwork.host[0].app[0] pingTxSeq:vector ETV
attr interpolationmode none
attr title "ping tx seq, vector"
vector 61 AODVNetwork.host[0].udp packetSent:vector(packetBytes) ETV
attr interpolationmode none
attr source packetSent
attr title "packets sent, vector(packetBytes)"
vector 62 AODVNetwork.host[0].wlan[0].mac rcvdPkFromHl:vector(packetBytes) ETV
attr interpolationmode none
attr source packetReceivedFromUpper
attr title "packets received from higher layer, vector(packetBytes)"
vector 63 AODVNetwork.host[0].wlan[0].mac.queue packetPushed:vector(packetBytes) ETV
attr interpolationmode none
attr title "packet pushed, vector(packetBytes)"
vector 64 AODVNetwork.host[0].wlan[0].mac.queue queueLength:vector ETV
attr interpolationmode sample-hold
attr source "count(packetPushed) - count(packetPopped) - count(packetRemoved) - count(packetDropped)"
attr title "queue length, vector"
vector 65 AODVNetwork.host[0].wlan[0].mac.queue packetPopped:vector(packetBytes) ETV
attr interpolationmode none
attr title "packet popped, vector(packetBytes)"
vector 66 AODVNetwork.host[0].wlan[0].mac.queue queueingTime:vector ETV
attr interpolationmode none
attr source queueingTime(packetPopped)
attr title "queueing times, vector"
attr unit s
vector 67 AODVNetwork.host[0].wlan[0].mac sentDownPk:vector(packetBytes) ETV
attr interpolationmode none
attr source packetSentToLower
attr title "packets sent to lower layer, vector(packetBytes)"
vector 68 AODVNetwork.host[19].wlan[0].mac rcvdPkFromLl:vector(packetBytes) ETV
attr interpolationmode none
attr source packetReceivedFromLower
attr title "packets received from lower layer, vector(packetBytes)"
vector 69 AODVNetwork.host[19].wlan[0].mac passedUpPk:vector(packetBytes) ETV
attr interpolationmode none
attr source packetSentToUpper
attr title "packets passed to higher layer, vector(packetBytes)"
vector 70 AODVNetwork.host[19].udp packetReceived:vector(packetBytes) ETV
attr interpolationmode none
attr source packetReceived
attr title "packets received, vector(packetBytes)"
vector 71 AODVNetwork.host[19].udp passedUpPk:vector(count) ETV
attr interpolationmode none
attr source packetSentToUpper
attr title "packets passed up, vector(count)"
vector 72 AODVNetwork.host[8].wlan[0].mac rcvdPkFromLl:vector(packetBytes) ETV
attr interpolationmode none
attr source packetReceivedFromLower
attr title "packets received from lower layer, vector(packetBytes)"
vector 73 AODVNetwork.host[8].wlan[0].mac passedUpPk:vector(packetBytes) ETV
attr interpolationmode none
attr source packetSentToUpper
attr title "packets passed to higher layer, vector(packetBytes)"
vector 74 AODVNetwork.host[8].udp packetReceived:vector(packetBytes) ETV
attr interpolationmode none
attr source packetReceived
attr title "packets received, vector(packetBytes)"
vector 75 AODVNetwork.host[8].udp passedUpPk:vector(count) ETV
attr interpolationmode none
attr source packetSentToUpper
attr title "packets passed up, vector(count)"
vector 76 AODVNetwork.host[11].wlan[0].mac rcvdPkFromLl:vector(packetBytes) ETV
attr interpolationmode none
attr source packetReceivedFromLower
attr title "packets received from lower layer, vector(packetBytes)"
vector 77 AODVNetwork.host[11].wlan[0].mac passedUpPk:vector(packetBytes) ETV
attr interpolationmode none
attr source packetSentToUpper
attr title "packets passed to higher layer, vector(packetBytes)"
vector 78 AODVNetwork.host[11].udp packetReceived:vector(packetBytes) ETV
attr interpolationmode none
attr source packetReceived
attr title "packets received, vector(packetBytes)"
vector 79 AODVNetwork.host[11].udp passedUpPk:vector(count) ETV
attr interpolationmode none
attr source packetSentToUpper
attr title "packets passed up, vector(count)"
vector 80 AODVNetwork.host[3].wlan[0].mac rcvdPkFromLl:vector(packetBytes) ETV
attr interpolationmode none
attr source packetReceivedFromLower
attr title "packets received from lower layer, vector(packetBytes)"
vector 81 AODVNetwork.host[3].wlan[0].mac passedUpPk:vector(packetBytes) ETV
attr interpolationmode none
attr source packetSentToUpper
attr title "packets passed to higher layer, vector(packetBytes)"
vector 82 AODVNetwork.host[3].udp packetReceived:vector(packetBytes) ETV
attr interpolationmode none
attr source packetReceived
attr title "packets received, vector(packetBytes)"
vector 83 AODVNetwork.host[3].udp passedUpPk:vector(count) ETV
attr interpolationmode none
attr source packetSentToUpper
attr title "packets passed up, vector(count)"
vector 84 AODVNetwork.host[18].wlan[0].mac rcvdPkFromLl:vector(packetBytes) ETV
attr interpolationmode none
attr source packetReceivedFromLower
attr title "packets received from lower layer, vector(packetBytes)"
vector 85 AODVNetwork.host[18].wlan[0].mac passedUpPk:vector(packetBytes) ETV
attr interpolationmode none
attr source packetSentToUpper
attr title "packets passed to higher layer, vector(packetBytes)"
vector 86 AODVNetwork.host[18].udp packetReceived:vector(packetBytes) ETV
attr interpolationmode none
attr source packetReceived
attr title "packets received, vector(packetBytes)"
vector 87 AODVNetwork.host[18].udp passedUpPk:vector(count) ETV
attr interpolationmode none
attr source packetSentToUpper
attr title "packets passed up, vector(count)"
vector 88 AODVNetwork.host[10].wlan[0].mac rcvdPkFromLl:vector(packetBytes) ETV
attr interpolationmode none
attr source packetReceivedFromLower
attr title "packets received from lower layer, vector(packetBytes)"
vector 89 AODVNetwork.host[10].wlan[0].mac passedUpPk:vector(packetBytes) ETV
attr interpolationmode none
attr source packetSentToUpper
attr title "packets passed to higher layer, vector(packetBytes)"
vector 90 AODVNetwork.host[10].udp packetReceived:vector(packetBytes) ETV
attr interpolationmode none
attr source packetReceived
attr title "packets received, vector(packetBytes)"
vector 91 AODVNetwork.host[10].udp passedUpPk:vector(count) ETV
attr interpolationmode none
attr source packetSentToUpper
attr title "packets passed up, vector(count)"
vector 92 AODVNetwork.host[16].wlan[0].mac rcvdPkFromLl:vector(packetBytes) ETV
attr interpolationmode none
attr source packetReceivedFromLower
attr title "packets received from lower layer, vector(packetBytes)"
vector 93 AODVNetwork.host[16].wlan[0].mac passedUpPk:vector(packetBytes) ETV
attr interpolationmode none
attr source packetSentToUpper
attr title "packets passed to higher layer, vector(packetBytes)"
vector 94 AODVNetwork.host[16].udp packetReceived:vector(packetBytes) ETV
attr interpolationmode none
attr source packetReceived
attr title "packets received, vector(packetBytes)"
vector 95 AODVNetwork.host[16].udp passedUpPk:vector(count) ETV
attr interpolationmode none
attr source packetSentToUpper
attr title "packets passed up, vector(count)"
vector 96 AODVNetwork.host[16].udp packetSent:vector(packetBytes) ETV
attr interpolationmode none
attr source packetSent
attr title "packets sent, vector(packetBytes)"
vector 97 AODVNetwork.host[16].wlan[0].mac rcvdPkFromHl:vector(packetBytes) ETV
attr interpolationmode none
attr source packetReceivedFromUpper
attr title "packets received from higher layer, vector(packetBytes)"
vector 98 AODVNetwork.host[16].wlan[0].mac.queue packetPushed:vector(packetBytes) ETV
attr interpolationmode none
attr title "packet pushed, vector(packetBytes)"
vector 99 AODVNetwork.host[16].wlan[0].mac.queue queueLength:vector ETV
attr interpolationmode sample-hold
attr source "count(packetPushed) - count(packetPopped) - count(packetRemoved) - count(packetDropped)"
attr title "queue length, vector"
vector 100 AODVNetwork.host[16].wlan[0].mac.queue packetPopped:vector(packetBytes) ETV
attr interpolationmode none
attr title "packet popped, vector(packetBytes)"
vector 101 AODVNetwork.host[16].wlan[0].mac.queue queueingTime:vector ETV
attr interpolationmode none
attr source queueingTime(packetPopped)
attr title "queueing times, vector"
attr unit s
vector 102 AODVNetwork.host[16].wlan[0].mac sentDownPk:vector(packetBytes) ETV
attr interpolationmode none
attr source packetSentToLower
attr title "packets sent to lower layer, vector(packetBytes)"
vector 103 AODVNetwork.host[17].wlan[0].mac rcvdPkFromLl:vector(packetBytes) ETV
attr interpolationmode none
attr source packetReceivedFromLower
attr title "packets received from lower layer, vector(packetBytes)"
vector 104 AODVNetwork.host[17].wlan[0].mac passedUpPk:vector(packetBytes) ETV
attr interpolationmode none
attr source packetSentToUpper
attr title "packets passed to higher layer, vector(packetBytes)"
vector 105 AODVNetwork.host[17].udp packetReceived:vector(packetBytes) ETV
attr interpolationmode none
attr source packetReceived
attr title "packets received, vector(packetBytes)"
vector 106 AODVNetwork.host[17].udp passedUpPk:vector(count) ETV
attr interpolationmode none
attr source packetSentToUpper
attr title "packets passed up, vector(count)"
vector 107 AODVNetwork.host[7].wlan[0].mac rcvdPkFromLl:vector(packetBytes) ETV
attr interpolationmode none
attr source packetReceivedFromLower
attr title "packets received from lower layer, vector(packetBytes)"
vector 108 AODVNetwork.host[7].wlan[0].mac passedUpPk:vector(packetBytes) ETV
attr interpolationmode none
attr source packetSentToUpper
attr title "packets passed to higher layer, vector(packetBytes)"
vector 109 AODVNetwork.host[7].udp packetReceived:vector(packetBytes) ETV
attr interpolationmode none
attr source packetReceived
attr title "packets received, vector(packetBytes)"
vector 110 AODVNetwork.host[7].udp passedUpPk:vector(count) ETV
attr interpolationmode none
attr source packetSentToUpper
attr title "packets passed up, vector(count)"
vector 111 AODVNetwork.host[6].wlan[0].mac rcvdPkFromLl:vector(packetBytes) ETV
attr interpolationmode none
attr source packetReceivedFromLower
attr title "packets received from lower layer, vector(packetBytes)"
vector 112 AODVNetwork.host[6].wlan[0].mac passedUpPk:vector(packetBytes) ETV
attr interpolationmode none
attr source packetSentToUpper
attr title "packets passed to higher layer, vector(packetBytes)"
vector 113 AODVNetwork.host[6].udp packetReceived:vector(packetBytes) ETV
attr interpolationmode none
attr source packetReceived
attr title "packets received, vector(packetBytes)"
vector 114 AODVNetwork.host[6].udp passedUpPk:vector(count) ETV
attr interpolationmode none
attr source packetSentToUpper
attr title "packets passed up, vector(count)"
vector 115 AODVNetwork.host[4].wlan[0].mac rcvdPkFromLl:vector(packetBytes) ETV
attr interpolationmode none
attr source packetReceivedFromLower
attr title "packets received from lower layer, vector(packetBytes)"
vector 116 AODVNetwork.host[4].wlan[0].mac passedUpPk:vector(packetBytes) ETV
attr interpolationmode none
attr source packetSentToUpper
attr title "packets passed to higher layer, vector(packetBytes)"
vector 117 AODVNetwork.host[4].udp packetReceived:vector(packetBytes) ETV
attr interpolationmode none
attr source packetReceived
attr title "packets received, vector(packetBytes)"
vector 118 AODVNetwork.host[4].udp passedUpPk:vector(count) ETV
attr interpolationmode none
attr source packetSentToUpper
attr title "packets passed up, vector(count)"
vector 119 AODVNetwork.host[14].wlan[0].mac rcvdPkFromLl:vector(packetBytes) ETV
attr interpolationmode none
attr source packetReceivedFromLower
attr title "packets received from lower layer, vector(packetBytes)"
vector 120 AODVNetwork.host[14].wlan[0].mac passedUpPk:vector(packetBytes) ETV
attr interpolationmode none
attr source packetSentToUpper
attr title "packets passed to higher layer, vector(packetBytes)"
vector 121 AODVNetwork.host[14].udp packetReceived:vector(packetBytes) ETV
attr interpolationmode none
attr source packetReceived
attr title "packets received, vector(packetBytes)"
vector 122 AODVNetwork.host[14].udp passedUpPk:vector(count) ETV
attr interpolationmode none
attr source packetSentToUpper
attr title "packets passed up, vector(count)"
vector 123 AODVNetwork.host[2].wlan[0].mac rcvdPkFromLl:vector(packetBytes) ETV
attr interpolationmode none
attr source packetReceivedFromLower
attr title "packets received from lower layer, vector(packetBytes)"
vector 124 AODVNetwork.host[2].wlan[0].mac passedUpPk:vector(packetBytes) ETV
attr interpolationmode none
attr source packetSentToUpper
attr title "packets passed to higher layer, vector(packetBytes)"
vector 125 AODVNetwork.host[2].udp packetReceived:vector(packetBytes) ETV
attr interpolationmode none
attr source packetReceived
attr title "packets received, vector(packetBytes)"
vector 126 AODVNetwork.host[2].udp passedUpPk:vector(count) ETV
attr interpolationmode none
attr source packetSentToUpper
attr title "packets passed up, vector(count)"
vector 127 AODVNetwork.host[0].wlan[0].mac rcvdPkFromLl:vector(packetBytes) ETV
attr interpolationmode none
attr source packetReceivedFromLower
attr title "packets received from lower layer, vector(packetBytes)"
vector 128 AODVNetwork.host[0].wlan[0].mac passedUpPk:vector(packetBytes) ETV
attr interpolationmode none
attr source packetSentToUpper
attr title "packets passed to higher layer, vector(packetBytes)"
vector 129 AODVNetwork.host[0].udp packetReceived:vector(packetBytes) ETV
attr interpolationmode none
attr source packetReceived
attr title "packets received, vector(packetBytes)"
vector 130 AODVNetwork.host[0].udp passedUpPk:vector(count) ETV
attr interpolationmode none
attr source packetSentToUpper
attr title "packets passed up, vector(count)"
vector 131 AODVNetwork.host[1].wlan[0].mac rcvdPkFromLl:vector(packetBytes) ETV
attr interpolationmode none
attr source packetReceivedFromLower
attr title "packets received from lower layer, vector(packetBytes)"
vector 132 AODVNetwork.host[1].wlan[0].mac passedUpPk:vector(packetBytes) ETV
attr interpolationmode none
attr source packetSentToUpper
attr title "packets passed to higher layer, vector(packetBytes)"
vector 133 AODVNetwork.host[1].udp packetReceived:vector(packetBytes) ETV
attr interpolationmode none
attr source packetReceived
attr title "packets received, vector(packetBytes)"
vector 134 AODVNetwork.host[1].udp passedUpPk:vector(count) ETV
attr interpolationmode none
attr source packetSentToUpper
attr title "packets passed up, vector(count)"
vector 135 AODVNetwork.host[1].udp packetSent:vector(packetBytes) ETV
attr interpolationmode none
attr source packetSent
attr title "packets sent, vector(packetBytes)"
vector 136 AODVNetwork.host[1].ipv4.arp arpRequestSent:vector(packetBytes) ETV
attr source arpRequestSent
attr title "ARP request sent, vector(packetBytes)"
vector 137 AODVNetwork.host[1].wlan[0].mac rcvdPkFromHl:vector(packetBytes) ETV
attr interpolationmode none
attr source packetReceivedFromUpper
attr title "packets received from higher layer, vector(packetBytes)"
vector 138 AODVNetwork.host[1].wlan[0].mac.queue packetPushed:vector(packetBytes) ETV
attr interpolationmode none
attr title "packet pushed, vector(packetBytes)"
vector 139 AODVNetwork.host[1].wlan[0].mac.queue queueLength:vector ETV
attr interpolationmode sample-hold
attr source "count(packetPushed) - count(packetPopped) - count(packetRemoved) - count(packetDropped)"
attr title "queue length, vector"
vector 140 AODVNetwork.host[1].wlan[0].mac.queue packetPopped:vector(packetBytes) ETV
attr interpolationmode none
attr title "packet popped, vector(packetBytes)"
vector 141 AODVNetwork.host[1].wlan[0].mac.queue queueingTime:vector ETV
attr interpolationmode none
attr source queueingTime(packetPopped)
attr title "queueing times, vector"
attr unit s
vector 142 AODVNetwork.host[1].wlan[0].mac sentDownPk:vector(packetBytes) ETV
attr interpolationmode none
attr source packetSentToLower
attr title "packets sent to lower layer, vector(packetBytes)"
vector 143 AODVNetwork.host[16].ipv4.arp arpReplySent:vector(packetBytes) ETV
attr source arpReplySent
attr title "ARP replies sent, vector(packetBytes)"
vector 144 AODVNetwork.host[18].udp packetSent:vector(packetBytes) ETV
attr interpolationmode none
attr source packetSent
attr title "packets sent, vector(packetBytes)"
vector 145 AODVNetwork.host[18].wlan[0].mac rcvdPkFromHl:vector(packetBytes) ETV
attr interpolationmode none
attr source packetReceivedFromUpper
attr title "packets received from higher layer, vector(packetBytes)"
vector 146 AODVNetwork.host[18].wlan[0].mac.queue packetPushed:vector(packetBytes) ETV
attr interpolationmode none
attr title "packet pushed, vector(packetBytes)"
vector 147 AODVNetwork.host[18].wlan[0].mac.queue queueLength:vector ETV
attr interpolationmode sample-hold
attr source "count(packetPushed) - count(packetPopped) - count(packetRemoved) - count(packetDropped)"
attr title "queue length, vector"
vector 148 AODVNetwork.host[18].wlan[0].mac.queue packetPopped:vector(packetBytes) ETV
attr interpolationmode none
attr title "packet popped, vector(packetBytes)"
vector 149 AODVNetwork.host[18].wlan[0].mac.queue queueingTime:vector ETV
attr interpolationmode none
attr source queueingTime(packetPopped)
attr title "queueing times, vector"
attr unit s
vector 150 AODVNetwork.host[18].wlan[0].mac sentDownPk:vector(packetBytes) ETV
attr interpolationmode none
attr source packetSentToLower
attr title "packets sent to lower layer, vector(packetBytes)"
vector 151 AODVNetwork.host[17].wlan[0].mac packetDropNotAddressedToUs:vector(packetBytes) ETV
attr interpolationmode none
attr source packetDropReasonIsNotAddressedToUs(packetDropped)
attr title "packet drop: not addressed to us, vector(packetBytes)"
vector 152 AODVNetwork.host[10].wlan[0].mac packetDropNotAddressedToUs:vector(packetBytes) ETV
attr interpolationmode none
attr source packetDropReasonIsNotAddressedToUs(packetDropped)
attr title "packet drop: not addressed to us, vector(packetBytes)"
vector 153 AODVNetwork.host[7].wlan[0].mac packetDropNotAddressedToUs:vector(packetBytes) ETV
attr interpolationmode none
attr source packetDropReasonIsNotAddressedToUs(packetDropped)
attr title "packet drop: not addressed to us, vector(packetBytes)"
vector 154 AODVNetwork.host[8].wlan[0].mac packetDropNotAddressedToUs:vector(packetBytes) ETV
attr interpolationmode none
attr source packetDropReasonIsNotAddressedToUs(packetDropped)
attr title "packet drop: not addressed to us, vector(packetBytes)"
vector 155 AODVNetwork.host[19].wlan[0].mac packetDropNotAddressedToUs:vector(packetBytes) ETV
attr interpolationmode none
attr source packetDropReasonIsNotAddressedToUs(packetDropped)
attr title "packet drop: not addressed to us, vector(packetBytes)"
vector 156 AODVNetwork.host[6].wlan[0].mac packetDropNotAddressedToUs:vector(packetBytes) ETV
attr interpolationmode none
attr source packetDropReasonIsNotAddressedToUs(packetDropped)
attr title "packet drop: not addressed to us, vector(packetBytes)"
vector 157 AODVNetwork.host[4].wlan[0].mac packetDropNotAddressedToUs:vector(packetBytes) ETV
attr interpolationmode none
attr source packetDropReasonIsNotAddressedToUs(packetDropped)
attr title "packet drop: not addressed to us, vector(packetBytes)"
vector 158 AODVNetwork.host[3].wlan[0].mac packetDropNotAddressedToUs:vector(packetBytes) ETV
attr interpolationmode none
attr source packetDropReasonIsNotAddressedToUs(packetDropped)
attr title "packet drop: not addressed to us, vector(packetBytes)"
vector 159 AODVNetwork.host[14].wlan[0].mac packetDropNotAddressedToUs:vector(packetBytes) ETV
attr interpolationmode none
attr source packetDropReasonIsNotAddressedToUs(packetDropped)
attr title "packet drop: not addressed to us, vector(packetBytes)"
vector 160 AODVNetwork.host[2].wlan[0].mac packetDropNotAddressedToUs:vector(packetBytes) ETV
attr interpolationmode none
attr source packetDropReasonIsNotAddressedToUs(packetDropped)
attr title "packet drop: not addressed to us, vector(packetBytes)"
vector 161 AODVNetwork.host[0].wlan[0].mac packetDropNotAddressedToUs:vector(packetBytes) ETV
attr interpolationmode none
attr source packetDropReasonIsNotAddressedToUs(packetDropped)
attr title "packet drop: not addressed to us, vector(packetBytes)"
vector 162 AODVNetwork.host[11].udp packetSent:vector(packetBytes) ETV
attr interpolationmode none
attr source packetSent
attr title "packets sent, vector(packetBytes)"
vector 163 AODVNetwork.host[11].wlan[0].mac rcvdPkFromHl:vector(packetBytes) ETV
attr interpolationmode none
attr source packetReceivedFromUpper
attr title "packets received from higher layer, vector(packetBytes)"
vector 164 AODVNetwork.host[11].wlan[0].mac.queue packetPushed:vector(packetBytes) ETV
attr interpolationmode none
attr title "packet pushed, vector(packetBytes)"
vector 165 AODVNetwork.host[11].wlan[0].mac.queue queueLength:vector ETV
attr interpolationmode sample-hold
attr source "count(packetPushed) - count(packetPopped) - count(packetRemoved) - count(packetDropped)"
attr title "queue length, vector"
vector 166 AODVNetwork.host[11].wlan[0].mac.queue packetPopped:vector(packetBytes) ETV
attr interpolationmode none
attr title "packet popped, vector(packetBytes)"
vector 167 AODVNetwork.host[11].wlan[0].mac.queue queueingTime:vector ETV
attr interpolationmode none
attr source queueingTime(packetPopped)
attr title "queueing times, vector"
attr unit s
vector 168 AODVNetwork.host[11].wlan[0].mac sentDownPk:vector(packetBytes) ETV
attr interpolationmode none
attr source packetSentToLower
attr title "packets sent to lower layer, vector(packetBytes)"
vector 169 AODVNetwork.host[9].wlan[0].mac rcvdPkFromLl:vector(packetBytes) ETV
attr interpolationmode none
attr source packetReceivedFromLower
attr title "packets received from lower layer, vector(packetBytes)"
vector 170 AODVNetwork.host[9].wlan[0].mac passedUpPk:vector(packetBytes) ETV
attr interpolationmode none
attr source packetSentToUpper
attr title "packets passed to higher layer, vector(packetBytes)"
vector 171 AODVNetwork.host[9].udp packetReceived:vector(packetBytes) ETV
attr interpolationmode none
attr source packetReceived
attr title "packets received, vector(packetBytes)"
vector 172 AODVNetwork.host[9].udp passedUpPk:vector(count) ETV
attr interpolationmode none
attr source packetSentToUpper
attr title "packets passed up, vector(count)"
vector 173 AODVNetwork.host[12].wlan[0].mac rcvdPkFromLl:vector(packetBytes) ETV
attr interpolationmode none
attr source packetReceivedFromLower
attr title "packets received from lower layer, vector(packetBytes)"
vector 174 AODVNetwork.host[12].wlan[0].mac passedUpPk:vector(packetBytes) ETV
attr interpolationmode none
attr source packetSentToUpper
attr title "packets passed to higher layer, vector(packetBytes)"
vector 175 AODVNetwork.host[12].udp packetReceived:vector(packetBytes) ETV
attr interpolationmode none
attr source packetReceived
attr title "packets received, vector(packetBytes)"
vector 176 AODVNetwork.host[12].udp passedUpPk:vector(count) ETV
attr interpolationmode none
attr source packetSentToUpper
attr title "packets passed up, vector(count)"
vector 177 AODVNetwork.host[19].udp packetSent:vector(packetBytes) ETV
attr interpolationmode none
attr source packetSent
attr title "packets sent, vector(packetBytes)"
vector 178 AODVNetwork.host[19].wlan[0].mac rcvdPkFromHl:vector(packetBytes) ETV
attr interpolationmode none
attr source packetReceivedFromUpper
attr title "packets received from higher layer, vector(packetBytes)"
vector 179 AODVNetwork.host[19].wlan[0].mac.queue packetPushed:vector(packetBytes) ETV
attr interpolationmode none
attr title "packet pushed, vector(packetBytes)"
vector 180 AODVNetwork.host[19].wlan[0].mac.queue queueLength:vector ETV
attr interpolationmode sample-hold
attr source "count(packetPushed) - count(packetPopped) - count(packetRemoved) - count(packetDropped)"
attr title "queue length, vector"
vector 181 AODVNetwork.host[19].wlan[0].mac.queue packetPopped:vector(packetBytes) ETV
attr interpolationmode none
attr title "packet popped, vector(packetBytes)"
vector 182 AODVNetwork.host[19].wlan[0].mac.queue queueingTime:vector ETV
attr interpolationmode none
attr source queueingTime(packetPopped)
attr title "queueing times, vector"
attr unit s
vector 183 AODVNetwork.host[19].wlan[0].mac sentDownPk:vector(packetBytes) ETV
attr interpolationmode none
attr source packetSentToLower
attr title "packets sent to lower layer, vector(packetBytes)"
vector 184 AODVNetwork.host[8].udp packetSent:vector(packetBytes) ETV
attr interpolationmode none
attr source packetSent
attr title "packets sent, vector(packetBytes)"
vector 185 AODVNetwork.host[8].wlan[0].mac rcvdPkFromHl:vector(packetBytes) ETV
attr interpolationmode none
attr source packetReceivedFromUpper
attr title "packets received from higher layer, vector(packetBytes)"
vector 186 AODVNetwork.host[8].wlan[0].mac.queue packetPushed:vector(packetBytes) ETV
attr interpolationmode none
attr title "packet pushed, vector(packetBytes)"
vector 187 AODVNetwork.host[8].wlan[0].mac.queue queueLength:vector ETV
attr interpolationmode sample-hold
attr source "count(packetPushed) - count(packetPopped) - count(packetRemoved) - count(packetDropped)"
attr title "queue length, vector"
vector 188 AODVNetwork.host[8].wlan[0].mac.queue packetPopped:vector(packetBytes) ETV
attr interpolationmode none
attr title "packet popped, vector(packetBytes)"
vector 189 AODVNetwork.host[8].wlan[0].mac.queue queueingTime:vector ETV
attr interpolationmode none
attr source queueingTime(packetPopped)
attr title "queueing times, vector"
attr unit s
vector 190 AODVNetwork.host[8].wlan[0].mac sentDownPk:vector(packetBytes) ETV
attr interpolationmode none
attr source packetSentToLower
attr title "packets sent to lower layer, vector(packetBytes)"
vector 191 AODVNetwork.host[10].udp packetSent:vector(packetBytes) ETV
attr interpolationmode none
attr source packetSent
attr title "packets sent, vector(packetBytes)"
vector 192 AODVNetwork.host[10].wlan[0].mac rcvdPkFromHl:vector(packetBytes) ETV
attr interpolationmode none
attr source packetReceivedFromUpper
attr title "packets received from higher layer, vector(packetBytes)"
vector 193 AODVNetwork.host[10].wlan[0].mac.queue packetPushed:vector(packetBytes) ETV
attr interpolationmode none
attr title "packet pushed, vector(packetBytes)"
vector 194 AODVNetwork.host[10].wlan[0].mac.queue queueLength:vector ETV
attr interpolationmode sample-hold
attr source "count(packetPushed) - count(packetPopped) - count(packetRemoved) - count(packetDropped)"
attr title "queue length, vector"
vector 195 AODVNetwork.host[10].wlan[0].mac.queue packetPopped:vector(packetBytes) ETV
attr interpolationmode none
attr title "packet popped, vector(packetBytes)"
vector 196 AODVNetwork.host[10].wlan[0].mac.queue queueingTime:vector ETV
attr interpolationmode none
attr source queueingTime(packetPopped)
attr title "queueing times, vector"
attr unit s
vector 197 AODVNetwork.host[10].wlan[0].mac sentDownPk:vector(packetBytes) ETV
attr interpolationmode none
attr source packetSentToLower
attr title "packets sent to lower layer, vector(packetBytes)"
vector 198 AODVNetwork.host[3].udp packetSent:vector(packetBytes) ETV
attr interpolationmode none
attr source packetSent
attr title "packets sent, vector(packetBytes)"
vector 199 AODVNetwork.host[3].wlan[0].mac rcvdPkFromHl:vector(packetBytes) ETV
attr interpolationmode none
attr source packetReceivedFromUpper
attr title "packets received from higher layer, vector(packetBytes)"
vector 200 AODVNetwork.host[3].wlan[0].mac.queue packetPushed:vector(packetBytes) ETV
attr interpolationmode none
attr title "packet pushed, vector(packetBytes)"
vector 201 AODVNetwork.host[3].wlan[0].mac.queue queueLength:vector ETV
attr interpolationmode sample-hold
attr source "count(packetPushed) - count(packetPopped) - count(packetRemoved) - count(packetDropped)"
attr title "queue length, vector"
vector 202 AODVNetwork.host[3].wlan[0].mac.queue packetPopped:vector(packetBytes) ETV
attr interpolationmode none
attr title "packet popped, vector(packetBytes)"
vector 203 AODVNetwork.host[3].wlan[0].mac.queue queueingTime:vector ETV
attr interpolationmode none
attr source queueingTime(packetPopped)
attr title "queueing times, vector"
attr unit s
vector 204 AODVNetwork.host[3].wlan[0].mac sentDownPk:vector(packetBytes) ETV
attr interpolationmode none
attr source packetSentToLower
attr title "packets sent to lower layer, vector(packetBytes)"
vector 205 AODVNetwork.host[5].wlan[0].mac rcvdPkFromLl:vector(packetBytes) ETV
attr interpolationmode none
attr source packetReceivedFromLower
attr title "packets received from lower layer, vector(packetBytes)"
vector 206 AODVNetwork.host[5].wlan[0].mac passedUpPk:vector(packetBytes) ETV
attr interpolationmode none
attr source packetSentToUpper
attr title "packets passed to higher layer, vector(packetBytes)"
vector 207 AODVNetwork.host[5].udp packetReceived:vector(packetBytes) ETV
attr interpolationmode none
attr source packetReceived
attr title "packets received, vector(packetBytes)"
vector 208 AODVNetwork.host[5].udp passedUpPk:vector(count) ETV
attr interpolationmode none
attr source packetSentToUpper
attr title "packets passed up, vector(count)"
vector 209 AODVNetwork.host[13].wlan[0].mac rcvdPkFromLl:vector(packetBytes) ETV
attr interpolationmode none
attr source packetReceivedFromLower
attr title "packets received from lower layer, vector(packetBytes)"
vector 210 AODVNetwork.host[13].wlan[0].mac passedUpPk:vector(packetBytes) ETV
attr interpolationmode none
attr source packetSentToUpper
attr title "packets passed to higher layer, vector(packetBytes)"
vector 211 AODVNetwork.host[13].udp packetReceived:vector(packetBytes) ETV
attr interpolationmode none
attr source packetReceived
attr title "packets received, vector(packetBytes)"
vector 212 AODVNetwork.host[13].udp passedUpPk:vector(count) ETV
attr interpolationmode none
attr source packetSentToUpper
attr title "packets passed up, vector(count)"
vector 213 AODVNetwork.host[16].ipv4.arp arpRequestSent:vector(packetBytes) ETV
attr source arpRequestSent
attr title "ARP request sent, vector(packetBytes)"
vector 214 AODVNetwork.host[0].ipv4.arp arpReplySent:vector(packetBytes) ETV
attr source arpReplySent
attr title "ARP replies sent, vector(packetBytes)"
vector 215 AODVNetwork.host[11].wlan[0].mac packetDropNotAddressedToUs:vector(packetBytes) ETV
attr interpolationmode none
attr source packetDropReasonIsNotAddressedToUs(packetDropped)
attr title "packet drop: not addressed to us, vector(packetBytes)"
vector 216 AODVNetwork.host[18].wlan[0].mac packetDropNotAddressedToUs:vector(packetBytes) ETV
attr interpolationmode none
attr source packetDropReasonIsNotAddressedToUs(packetDropped)
attr title "packet drop: not addressed to us, vector(packetBytes)"
vector 217 AODVNetwork.host[1].wlan[0].mac packetDropNotAddressedToUs:vector(packetBytes) ETV
attr interpolationmode none
attr source packetDropReasonIsNotAddressedToUs(packetDropped)
attr title "packet drop: not addressed to us, vector(packetBytes)"
vector 218 AODVNetwork.host[0].app[0] pingRxSeq:vector ETV
attr interpolationmode none
attr title "ping rx seq, vector"
vector 219 AODVNetwork.host[0].app[0] rtt:vector ETV
attr interpolationmode none
attr title "ping round-trip time, vector"
attr unit s
vector 220 AODVNetwork.host[0].ipv4.arp arpRequestSent:vector(packetBytes) ETV
attr source arpRequestSent
attr title "ARP request sent, vector(packetBytes)"
vector 221 AODVNetwork.host[1].ipv4.arp arpReplySent:vector(packetBytes) ETV
attr source arpReplySent
attr title "ARP replies sent, vector(packetBytes)"
0	0	0	0
0	0	0	0
0	0	0	4
1	0	0	0
1	0	0	0
1	0	0	4
2	0	0	0
2	0	0	0
2	0	0	4
3	0	0	0
3	0	0	0
3	0	0	4
4	0	0	0
4	0	0	0
4	0	0	4
5	0	0	0
5	0	0	0
5	0	0	4
6	0	0	0
6	0	0	0
6	0	0	4
7	0	0	0
7	0	0	0
7	0	0	4
8	0	0	0
8	0	0	0
8	0	0	4
9	0	0	0
9	0	0	0
9	0	0	4
10	0	0	0
10	0	0	0
10	0	0	4
11	0	0	0
11	0	0	0
11	0	0	4
12	0	0	0
12	0	0	0
12	0	0	4
13	0	0	0
13	0	0	0
13	0	0	4
14	0	0	0
14	0	0	0
14	0	0	4
15	0	0	0
15	0	0	0
15	0	0	4
16	0	0	0
16	0	0	0
16	0	0	4
17	0	0	0
17	0	0	0
17	0	0	4
18	0	0	0
18	0	0	0
18	0	0	4
19	0	0	0
19	0	0	0
19	0	0	4
20	0	0	1
20	191	3.200686080661	3
20	251	3.201034080661	1
20	330	3.201287740395	3
20	389	3.201539740395	2
20	431	3.201581247817	3
20	516	3.201929247817	1
20	544	3.202142957686	3
20	564	3.202490957686	1
20	622	3.202788497599	3
20	698	3.203136497599	2
20	796	3.203205309652	1
20	826	3.204991218611	3
20	866	3.205243218611	1
20	939	3.205496792989	3
20	970	3.205828792989	1
20	1044	3.206306367367	3
20	1075	3.206782367367	1
20	1144	3.207260027101	3
20	1179	3.207736027101	1
20	1293	4.195731583595	3
20	1324	4.196207583595	1
20	1393	4.196685243329	3
20	1428	4.197161243329	1
20	1528	5.195731583595	3
20	1559	5.196207583595	1
20	1628	5.196685243329	3
20	1663	5.197161243329	1
20	1763	6.195731583595	3
20	1794	6.196207583595	1
20	1863	6.196685243329	3
20	1898	6.197161243329	1
20	2039	7.195731583595	3
20	2070	7.196207583595	1
20	2139	7.196685243329	3
20	2174	7.197161243329	1
20	2274	8.195731583595	3
20	2305	8.196207583595	1
20	2374	8.196685243329	3
20	2409	8.197161243329	1
20	2526	9.195731583595	3
20	2557	9.196207583595	1
20	2628	9.196685243329	3
20	2663	9.197161243329	1
20	2763	10.195731583595	3
20	2794	10.196207583595	1
20	2863	10.196685243329	3
20	2898	10.197161243329	1
20	2999	11.195731583595	3
20	3030	11.196207583595	1
20	3100	11.196685243329	3
20	3135	11.197161243329	1
20	3236	12.195731583595	3
20	3267	12.196207583595	1
20	3336	12.196685243329	3
20	3371	12.197161243329	1
20	3472	13.195731583595	3
20	3503	13.196207583595	1
20	3573	13.196685243329	3
20	3608	13.197161243329	1
20	3708	14.195731583595	3
20	3739	14.196207583595	1
20	3809	14.196685243329	3
20	3844	14.197161243329	1
20	3945	15.195731583595	3
20	3976	15.196207583595	1
20	4046	15.196685243329	3
20	4081	15.197161243329	1
20	4181	16.195731583595	3
20	4212	16.196207583595	1
20	4281	16.196685243329	3
20	4316	16.197161243329	1
20	4418	17.195731583595	3
20	4449	17.196207583595	1
20	4519	17.196685243329	3
20	4554	17.197161243329	1
20	4654	18.195731583595	3
20	4685	18.196207583595	1
20	4754	18.196685243329	3
20	4789	18.197161243329	1
20	4890	19.195731583595	3
20	4921	19.196207583595	1
20	4992	19.196685243329	3
20	5027	19.197161243329	1
20	5127	20.195731583595	3
20	5158	20.196207583595	1
20	5227	20.196685243329	3
20	5262	20.197161243329	1
20	5363	21.195731583595	3
20	5394	21.196207583595	1
20	5464	21.196685243329	3
20	5499	21.197161243329	1
20	5639	22.195731583595	3
20	5670	22.196207583595	1
20	5739	22.196685243329	3
20	5774	22.197161243329	1
20	5874	23.195731583595	3
20	5905	23.196207583595	1
20	5975	23.196685243329	3
20	6010	23.197161243329	1
20	6127	24.195731583595	3
20	6158	24.196207583595	1
20	6228	24.196685243329	3
20	6263	24.197161243329	1
20	6363	25.195731583595	3
20	6394	25.196207583595	1
20	6464	25.196685243329	3
20	6499	25.197161243329	1
20	6600	26.195731583595	3
20	6631	26.196207583595	1
20	6700	26.196685243329	3
20	6735	26.197161243329	1
20	6836	27.195731583595	3
20	6867	27.196207583595	1
20	6937	27.196685243329	3
20	6972	27.197161243329	1
20	7073	28.195731583595	3
20	7104	28.196207583595	1
20	7173	28.196685243329	3
20	7208	28.197161243329	1
20	7308	29.195731583595	3
20	7339	29.196207583595	1
20	7410	29.196685243329	3
20	7445	29.197161243329	1
20	7546	30.195731583595	3
20	7577	30.196207583595	1
20	7646	30.196685243329	3
20	7681	30.197161243329	1
20	7781	31.195731583595	3
20	7812	31.196207583595	1
20	7882	31.196685243329	3
20	7917	31.197161243329	1
20	8019	32.195731583595	3
20	8050	32.196207583595	1
20	8119	32.196685243329	3
20	8154	32.197161243329	1
20	8254	33.195731583595	3
20	8285	33.196207583595	1
20	8355	33.196685243329	3
20	8390	33.197161243329	1
20	8491	34.195731583595	3
20	8522	34.196207583595	1
20	8592	34.196685243329	3
20	8627	34.197161243329	1
20	8727	35.195731583595	3
20	8758	35.196207583595	1
20	8828	35.196685243329	3
20	8863	35.197161243329	1
20	8964	36.195731583595	3
20	8995	36.196207583595	1
20	9064	36.196685243329	3
20	9099	36.197161243329	1
20	9200	37.195731583595	3
20	9231	37.196207583595	1
20	9301	37.196685243329	3
20	9336	37.197161243329	1
20	9437	38.195731583595	3
20	9468	38.196207583595	1
20	9537	38.196685243329	3
20	9572	38.197161243329	1
20	9672	39.195731583595	3
20	9703	39.196207583595	1
20	9774	39.196685243329	3
20	9809	39.197161243329	1
20	9910	40.195731583595	3
20	9941	40.196207583595	1
20	10010	40.196685243329	3
20	10045	40.197161243329	1
20	10145	41.195731583595	3
20	10176	41.196207583595	1
20	10246	41.196685243329	3
20	10281	41.197161243329	1
20	10383	42.195731583595	3
20	10414	42.196207583595	1
20	10483	42.196685243329	3
20	10518	42.197161243329	1
20	10618	43.195731583595	3
20	10649	43.196207583595	1
20	10719	43.196685243329	3
20	10754	43.197161243329	1
20	10855	44.195731583595	3
20	10886	44.196207583595	1
20	10956	44.196685243329	3
20	10991	44.197161243329	1
20	11091	45.195731583595	3
20	11122	45.196207583595	1
20	11192	45.196685243329	3
20	11227	45.197161243329	1
20	11328	46.195731583595	3
20	11359	46.196207583595	1
20	11428	46.196685243329	3
20	11463	46.197161243329	1
20	11564	47.195731583595	3
20	11595	47.196207583595	1
20	11665	47.196685243329	3
20	11700	47.197161243329	1
20	11801	48.195731583595	3
20	11832	48.196207583595	1
20	11901	48.196685243329	3
20	11936	48.197161243329	1
20	12036	49.195731583595	3
20	12067	49.196207583595	1
20	12138	49.196685243329	3
20	12173	49.197161243329	1
20	12274	50.195731583595	3
20	12305	50.196207583595	1
20	12374	50.196685243329	3
20	12409	50.197161243329	1
20	12509	51.195731583595	3
20	12540	51.196207583595	1
20	12610	51.196685243329	3
20	12645	51.197161243329	1
20	12747	52.195731583595	3
20	12778	52.196207583595	1
20	12847	52.196685243329	3
20	12882	52.197161243329	1
20	12982	53.195731583595	3
20	13013	53.196207583595	1
20	13083	53.196685243329	3
20	13118	53.197161243329	1
20	13219	54.195731583595	3
20	13250	54.196207583595	1
20	13320	54.196685243329	3
20	13355	54.197161243329	1
20	13455	55.195731583595	3
20	13486	55.196207583595	1
20	13556	55.196685243329	3
20	13591	55.197161243329	1
20	13692	56.195731583595	3
20	13723	56.196207583595	1
20	13792	56.196685243329	3
20	13827	56.197161243329	1
20	13928	57.195731583595	3
20	13959	57.196207583595	1
20	14029	57.196685243329	3
20	14064	57.197161243329	1
20	14165	58.195731583595	3
20	14196	58.196207583595	1
20	14265	58.196685243329	3
20	14300	58.197161243329	1
20	14400	59.195731583595	3
20	14431	59.196207583595	1
20	14502	59.196685243329	3
20	14537	59.197161243329	1
20	14638	60.195731583595	3
20	14669	60.196207583595	1
20	14738	60.196685243329	3
20	14773	60.197161243329	1
20	14873	61.195731583595	3
20	14904	61.196207583595	1
20	14974	61.196685243329	3
20	15009	61.197161243329	1
20	15111	62.195731583595	3
20	15142	62.196207583595	1
20	15211	62.196685243329	3
20	15246	62.197161243329	1
20	15346	63.195731583595	3
20	15377	63.196207583595	1
20	15447	63.196685243329	3
20	15482	63.197161243329	1
20	15583	64.195731583595	3
20	15614	64.196207583595	1
20	15684	64.196685243329	3
20	15719	64.197161243329	1
20	15819	65.195731583595	3
20	15850	65.196207583595	1
20	15920	65.196685243329	3
20	15955	65.197161243329	1
20	16056	66.195731583595	3
20	16087	66.196207583595	1
20	16156	66.196685243329	3
20	16191	66.197161243329	1
20	16292	67.195731583595	3
20	16323	67.196207583595	1
20	16393	67.196685243329	3
20	16428	67.197161243329	1
20	16529	68.195731583595	3
20	16560	68.196207583595	1
20	16629	68.196685243329	3
20	16664	68.197161243329	1
20	16764	69.195731583595	3
20	16795	69.196207583595	1
20	16866	69.196685243329	3
20	16901	69.197161243329	1
20	17002	70.195731583595	3
20	17033	70.196207583595	1
20	17102	70.196685243329	3
20	17137	70.197161243329	1
20	17237	71.195731583595	3
20	17268	71.196207583595	1
20	17338	71.196685243329	3
20	17373	71.197161243329	1
20	17475	72.195731583595	3
20	17506	72.196207583595	1
20	17575	72.196685243329	3
20	17610	72.197161243329	1
20	17710	73.195731583595	3
20	17741	73.196207583595	1
20	17811	73.196685243329	3
20	17846	73.197161243329	1
20	17947	74.195731583595	3
20	17978	74.196207583595	1
20	18048	74.196685243329	3
20	18083	74.197161243329	1
20	18183	75.195731583595	3
20	18214	75.196207583595	1
20	18284	75.196685243329	3
20	18319	75.197161243329	1
20	18420	76.195731583595	3
20	18451	76.196207583595	1
20	18520	76.196685243329	3
20	18555	76.197161243329	1
20	18656	77.195731583595	3
20	18687	77.196207583595	1
20	18757	77.196685243329	3
20	18792	77.197161243329	1
20	18893	78.195731583595	3
20	18924	78.196207583595	1
20	18993	78.196685243329	3
20	19028	78.197161243329	1
20	19128	79.195731583595	3
20	19159	79.196207583595	1
20	19230	79.196685243329	3
20	19265	79.197161243329	1
20	19366	80.195731583595	3
20	19397	80.196207583595	1
20	19466	80.196685243329	3
20	19501	80.197161243329	1
20	19601	81.195731583595	3
20	19632	81.196207583595	1
20	19702	81.196685243329	3
20	19737	81.197161243329	1
20	19839	82.195731583595	3
20	19870	82.196207583595	1
20	19939	82.196685243329	3
20	19974	82.197161243329	1
20	20074	83.195731583595	3
20	20105	83.196207583595	1
20	20175	83.196685243329	3
20	20210	83.197161243329	1
20	20311	84.195731583595	3
20	20342	84.196207583595	1
20	20412	84.196685243329	3
20	20447	84.197161243329	1
20	20547	85.195731583595	3
20	20578	85.196207583595	1
20	20648	85.196685243329	3
20	20683	85.197161243329	1
20	20784	86.195731583595	3
20	20815	86.196207583595	1
20	20884	86.196685243329	3
20	20919	86.197161243329	1
20	21020	87.195731583595	3
20	21051	87.196207583595	1
20	21121	87.196685243329	3
20	21156	87.197161243329	1
20	21257	88.195731583595	3
20	21288	88.196207583595	1
20	21357	88.196685243329	3
20	21392	88.197161243329	1
20	21492	89.195731583595	3
20	21523	89.196207583595	1
20	21594	89.196685243329	3
20	21629	89.197161243329	1
20	21730	90.195731583595	3
20	21761	90.196207583595	1
20	21830	90.196685243329	3
20	21865	90.197161243329	1
20	21965	91.195731583595	3
20	21996	91.196207583595	1
20	22066	91.196685243329	3
20	22101	91.197161243329	1
20	22203	92.195731583595	3
20	22234	92.196207583595	1
20	22303	92.196685243329	3
20	22338	92.197161243329	1
20	22438	93.195731583595	3
20	22469	93.196207583595	1
20	22539	93.196685243329	3
20	22574	93.197161243329	1
20	22675	94.195731583595	3
20	22706	94.196207583595	1
20	22776	94.196685243329	3
20	22811	94.197161243329	1
20	22911	95.195731583595	3
20	22942	95.196207583595	1
20	23012	95.196685243329	3
20	23047	95.197161243329	1
20	23148	96.195731583595	3
20	23179	96.196207583595	1
20	23248	96.196685243329	3
20	23283	96.197161243329	1
20	23384	97.195731583595	3
20	23415	97.196207583595	1
20	23485	97.196685243329	3
20	23520	97.197161243329	1
20	23621	98.195731583595	3
20	23652	98.196207583595	1
20	23721	98.196685243329	3
20	23756	98.197161243329	1
20	23856	99.195731583595	3
20	23887	99.196207583595	1
20	23958	99.196685243329	3
20	23993	99.197161243329	1
20	24094	100.195731583595	3
20	24125	100.196207583595	1
20	24194	100.196685243329	3
20	24229	100.197161243329	1
20	24329	101.195731583595	3
20	24360	101.196207583595	1
20	24430	101.196685243329	3
20	24465	101.197161243329	1
20	24567	102.195731583595	3
20	24598	102.196207583595	1
20	24667	102.196685243329	3
20	24702	102.197161243329	1
20	24802	103.195731583595	3
20	24833	103.196207583595	1
20	24903	103.196685243329	3
20	24938	103.197161243329	1
20	25039	104.195731583595	3
20	25070	104.196207583595	1
20	25140	104.196685243329	3
20	25175	104.197161243329	1
20	25275	105.195731583595	3
20	25306	105.196207583595	1
20	25376	105.196685243329	3
20	25411	105.197161243329	1
20	25512	106.195731583595	3
20	25543	106.196207583595	1
20	25612	106.196685243329	3
20	25647	106.197161243329	1
20	25748	107.195731583595	3
20	25779	107.196207583595	1
20	25849	107.196685243329	3
20	25884	107.197161243329	1
20	25985	108.195731583595	3
20	26016	108.196207583595	1
20	26085	108.196685243329	3
20	26120	108.197161243329	1
20	26220	109.195731583595	3
20	26251	109.196207583595	1
20	26322	109.196685243329	3
20	26357	109.197161243329	1
20	26458	110.195731583595	3
20	26489	110.196207583595	1
20	26558	110.196685243329	3
20	26593	110.197161243329	1
20	26693	111.195731583595	3
20	26724	111.196207583595	1
20	26794	111.196685243329	3
20	26829	111.197161243329	1
20	26931	112.195731583595	3
20	26962	112.196207583595	1
20	27031	112.196685243329	3
20	27066	112.197161243329	1
20	27166	113.195731583595	3
20	27197	113.196207583595	1
20	27267	113.196685243329	3
20	27302	113.197161243329	1
20	27403	114.195731583595	3
20	27434	114.196207583595	1
20	27504	114.196685243329	3
20	27539	114.197161243329	1
20	27639	115.195731583595	3
20	27670	115.196207583595	1
20	27740	115.196685243329	3
20	27775	115.197161243329	1
20	27876	116.195731583595	3
20	27907	116.196207583595	1
20	27976	116.196685243329	3
20	28011	116.197161243329	1
20	28112	117.195731583595	3
20	28143	117.196207583595	1
20	28213	117.196685243329	3
20	28248	117.197161243329	1
20	28349	118.195731583595	3
20	28380	118.196207583595	1
20	28449	118.196685243329	3
20	28484	118.197161243329	1
20	28584	119.195731583595	3
20	28615	119.196207583595	1
20	28686	119.196685243329	3
20	28721	119.197161243329	1
20	28822	120.195731583595	3
20	28853	120.196207583595	1
20	28922	120.196685243329	3
20	28957	120.197161243329	1
20	29057	121.195731583595	3
20	29088	121.196207583595	1
20	29158	121.196685243329	3
20	29193	121.197161243329	1
20	29295	122.195731583595	3
20	29326	122.196207583595	1
20	29395	122.196685243329	3
20	29430	122.197161243329	1
20	29530	123.195731583595	3
20	29561	123.196207583595	1
20	29631	123.196685243329	3
20	29666	123.197161243329	1
20	29773	124.195507583595	3
20	29804	124.195759583595	1
20	29876	124.196237157973	3
20	29917	124.196489157973	1
20	29986	124.196742817707	3
20	30021	124.197218817707	1
20	30090	124.197696477441	3
20	30125	124.198172477441	1
20	30229	125.195731583595	3
20	30260	125.196207583595	1
20	30330	125.196685243329	3
20	30365	125.197161243329	1
20	30466	126.195731583595	3
20	30497	126.196207583595	1
20	30566	126.196685243329	3
20	30601	126.197161243329	1
20	30701	127.195731583595	3
20	30732	127.196207583595	1
20	30802	127.196685243329	3
20	30837	127.197161243329	1
20	30939	128.195731583595	3
20	30970	128.196207583595	1
20	31039	128.196685243329	3
20	31074	128.197161243329	1
20	31174	129.195731583595	3
20	31205	129.196207583595	1
20	31274	129.196685243329	3
20	31309	129.197161243329	1
20	31411	130.195731583595	3
20	31442	130.196207583595	1
20	31512	130.196685243329	3
20	31547	130.197161243329	1
20	31647	131.195731583595	3
20	31678	131.196207583595	1
20	31747	131.196685243329	3
20	31782	131.197161243329	1
20	31883	132.195731583595	3
20	31914	132.196207583595	1
20	31985	132.196685243329	3
20	32020	132.197161243329	1
20	32120	133.195731583595	3
20	32151	133.196207583595	1
20	32220	133.196685243329	3
20	32255	133.197161243329	1
20	32356	134.195731583595	3
20	32387	134.196207583595	1
20	32457	134.196685243329	3
20	32492	134.197161243329	1
20	32593	135.195731583595	3
20	32624	135.196207583595	1
20	32693	135.196685243329	3
20	32728	135.197161243329	1
20	32829	136.195731583595	3
20	32860	136.196207583595	1
20	32930	136.196685243329	3
20	32965	136.197161243329	1
20	33065	137.195731583595	3
20	33096	137.196207583595	1
20	33166	137.196685243329	3
20	33201	137.197161243329	1
20	33302	138.195731583595	3
20	33333	138.196207583595	1
20	33403	138.196685243329	3
20	33438	138.197161243329	1
20	33538	139.195731583595	3
20	33569	139.196207583595	1
20	33638	139.196685243329	3
20	33673	139.197161243329	1
20	33775	140.195731583595	3
20	33806	140.196207583595	1
20	33876	140.196685243329	3
20	33911	140.197161243329	1
20	34011	141.195731583595	3
20	34042	141.196207583595	1
20	34111	141.196685243329	3
20	34146	141.197161243329	1
20	34247	142.195731583595	3
20	34278	142.196207583595	1
20	34349	142.196685243329	3
20	34384	142.197161243329	1
20	34484	143.195731583595	3
20	34515	143.196207583595	1
20	34584	143.196685243329	3
20	34619	143.197161243329	1
20	34720	144.195731583595	3
20	34751	144.196207583595	1
20	34821	144.196685243329	3
20	34856	144.197161243329	1
20	34957	145.195731583595	3
20	34988	145.196207583595	1
20	35057	145.196685243329	3
20	35092	145.197161243329	1
20	35193	146.195731583595	3
20	35224	146.196207583595	1
20	35294	146.196685243329	3
20	35329	146.197161243329	1
20	35429	147.195731583595	3
20	35460	147.196207583595	1
20	35530	147.196685243329	3
20	35565	147.197161243329	1
20	35666	148.195731583595	3
20	35697	148.196207583595	1
20	35767	148.196685243329	3
20	35802	148.197161243329	1
20	35902	149.195731583595	3
20	35933	149.196207583595	1
20	36002	149.196685243329	3
20	36037	149.197161243329	1
20	36139	150.195731583595	3
20	36170	150.196207583595	1
20	36240	150.196685243329	3
20	36275	150.197161243329	1
20	36375	151.195731583595	3
20	36406	151.196207583595	1
20	36475	151.196685243329	3
20	36510	151.197161243329	1
20	36611	152.195731583595	3
20	36642	152.196207583595	1
20	36713	152.196685243329	3
20	36748	152.197161243329	1
20	36848	153.195731583595	3
20	36879	153.196207583595	1
20	36948	153.196685243329	3
20	36983	153.197161243329	1
20	37084	154.195731583595	3
20	37115	154.196207583595	1
20	37185	154.196685243329	3
20	37220	154.197161243329	1
20	37321	155.195731583595	3
20	37352	155.196207583595	1
20	37421	155.196685243329	3
20	37456	155.197161243329	1
20	37557	156.195731583595	3
20	37588	156.196207583595	1
20	37658	156.196685243329	3
20	37693	156.197161243329	1
20	37793	157.195731583595	3
20	37824	157.196207583595	1
20	37894	157.196685243329	3
20	37929	157.197161243329	1
20	38030	158.195731583595	3
20	38061	158.196207583595	1
20	38131	158.196685243329	3
20	38166	158.197161243329	1
20	38266	159.195731583595	3
20	38297	159.196207583595	1
20	38366	159.196685243329	3
20	38401	159.197161243329	1
20	38503	160.195731583595	3
20	38534	160.196207583595	1
20	38604	160.196685243329	3
20	38639	160.197161243329	1
20	38739	161.195731583595	3
20	38770	161.196207583595	1
20	38839	161.196685243329	3
20	38874	161.197161243329	1
20	38975	162.195731583595	3
20	39006	162.196207583595	1
20	39077	162.196685243329	3
20	39112	162.197161243329	1
20	39212	163.195731583595	3
20	39243	163.196207583595	1
20	39312	163.196685243329	3
20	39347	163.197161243329	1
20	39448	164.195731583595	3
20	39479	164.196207583595	1
20	39549	164.196685243329	3
20	39584	164.197161243329	1
20	39685	165.195731583595	3
20	39716	165.196207583595	1
20	39785	165.196685243329	3
20	39820	165.197161243329	1
20	39921	166.195731583595	3
20	39952	166.196207583595	1
20	40022	166.196685243329	3
20	40057	166.197161243329	1
20	40157	167.195731583595	3
20	40188	167.196207583595	1
20	40258	167.196685243329	3
20	40293	167.197161243329	1
20	40394	168.195731583595	3
20	40425	168.196207583595	1
20	40495	168.196685243329	3
20	40530	168.197161243329	1
20	40630	169.195731583595	3
20	40661	169.196207583595	1
20	40730	169.196685243329	3
20	40765	169.197161243329	1
20	40867	170.195731583595	3
20	40898	170.196207583595	1
20	40968	170.196685243329	3
20	41003	170.197161243329	1
20	41103	171.195731583595	3
20	41134	171.196207583595	1
20	41203	171.196685243329	3
20	41238	171.197161243329	1
20	41339	172.195731583595	3
20	41370	172.196207583595	1
20	41441	172.196685243329	3
20	41476	172.197161243329	1
20	41576	173.195731583595	3
20	41607	173.196207583595	1
20	41676	173.196685243329	3
20	41711	173.197161243329	1
20	41812	174.195731583595	3
20	41843	174.196207583595	1
20	41913	174.196685243329	3
20	41948	174.197161243329	1
20	42049	175.195731583595	3
20	42080	175.196207583595	1
20	42149	175.196685243329	3
20	42184	175.197161243329	1
20	42285	176.195731583595	3
20	42316	176.196207583595	1
20	42386	176.196685243329	3
20	42421	176.197161243329	1
20	42521	177.195731583595	3
20	42552	177.196207583595	1
20	42622	177.196685243329	3
20	42657	177.197161243329	1
20	42758	178.195731583595	3
20	42789	178.196207583595	1
20	42859	178.196685243329	3
20	42894	178.197161243329	1
20	42994	179.195731583595	3
20	43025	179.196207583595	1
20	43094	179.196685243329	3
20	43129	179.197161243329	1
20	43231	180.195731583595	3
20	43262	180.196207583595	1
20	43332	180.196685243329	3
20	43367	180.197161243329	1
20	43467	181.195731583595	3
20	43498	181.196207583595	1
20	43567	181.196685243329	3
20	43602	181.197161243329	1
20	43703	182.195731583595	3
20	43734	182.196207583595	1
20	43805	182.196685243329	3
20	43840	182.197161243329	1
20	43940	183.195731583595	3
20	43971	183.196207583595	1
20	44040	183.196685243329	3
20	44075	183.197161243329	1
20	44176	184.195731583595	3
20	44207	184.196207583595	1
20	44277	184.196685243329	3
20	44312	184.197161243329	1
20	44413	185.195731583595	3
20	44444	185.196207583595	1
20	44513	185.196685243329	3
20	44548	185.197161243329	1
20	44649	186.195731583595	3
20	44680	186.196207583595	1
20	44750	186.196685243329	3
20	44785	186.197161243329	1
20	44885	187.195731583595	3
20	44916	187.196207583595	1
20	44986	187.196685243329	3
20	45021	187.197161243329	1
20	45122	188.195731583595	3
20	45153	188.196207583595	1
20	45223	188.196685243329	3
20	45258	188.197161243329	1
20	45358	189.195731583595	3
20	45389	189.196207583595	1
20	45458	189.196685243329	3
20	45493	189.197161243329	1
20	45595	190.195731583595	3
20	45626	190.196207583595	1
20	45696	190.196685243329	3
20	45731	190.197161243329	1
20	45831	191.195731583595	3
20	45862	191.196207583595	1
20	45931	191.196685243329	3
20	45966	191.197161243329	1
20	46067	192.195731583595	3
20	46098	192.196207583595	1
20	46169	192.196685243329	3
20	46204	192.197161243329	1
20	46304	193.195731583595	3
20	46335	193.196207583595	1
20	46404	193.196685243329	3
20	46439	193.197161243329	1
20	46540	194.195731583595	3
20	46571	194.196207583595	1
20	46641	194.196685243329	3
20	46676	194.197161243329	1
20	46777	195.195731583595	3
20	46808	195.196207583595	1
20	46877	195.196685243329	3
20	46912	195.197161243329	1
20	47013	196.195731583595	3
20	47044	196.196207583595	1
20	47114	196.196685243329	3
20	47149	196.197161243329	1
20	47249	197.195731583595	3
20	47280	197.196207583595	1
20	47350	197.196685243329	3
20	47385	197.197161243329	1
20	47486	198.195731583595	3
20	47517	198.196207583595	1
20	47587	198.196685243329	3
20	47622	198.197161243329	1
20	47722	199.195731583595	3
20	47753	199.196207583595	1
20	47822	199.196685243329	3
20	47857	199.197161243329	1
20	47959	200.195731583595	3
20	47990	200.196207583595	1
20	48060	200.196685243329	3
20	48095	200.197161243329	1
20	48195	201.195731583595	3
20	48226	201.196207583595	1
20	48295	201.196685243329	3
20	48330	201.197161243329	1
20	48431	202.195731583595	3
20	48462	202.196207583595	1
20	48533	202.196685243329	3
20	48568	202.197161243329	1
20	48668	203.195731583595	3
20	48699	203.196207583595	1
20	48768	203.196685243329	3
20	48803	203.197161243329	1
20	48904	204.195731583595	3
20	48935	204.196207583595	1
20	49005	204.196685243329	3
20	49040	204.197161243329	1
20	49141	205.195731583595	3
20	49172	205.196207583595	1
20	49241	205.196685243329	3
20	49276	205.197161243329	1
20	49377	206.195731583595	3
20	49408	206.196207583595	1
20	49478	206.196685243329	3
20	49513	206.197161243329	1
20	49613	207.195731583595	3
20	49644	207.196207583595	1
20	49714	207.196685243329	3
20	49749	207.197161243329	1
20	49850	208.195731583595	3
20	49881	208.196207583595	1
20	49951	208.196685243329	3
20	49986	208.197161243329	1
20	50086	209.195731583595	3
20	50117	209.196207583595	1
20	50186	209.196685243329	3
20	50221	209.197161243329	1
20	50323	210.195731583595	3
20	50354	210.196207583595	1
20	50424	210.196685243329	3
20	50459	210.197161243329	1
20	50559	211.195731583595	3
20	50590	211.196207583595	1
20	50659	211.196685243329	3
20	50694	211.197161243329	1
20	50795	212.195731583595	3
20	50826	212.196207583595	1
20	50897	212.196685243329	3
20	50932	212.197161243329	1
20	51032	213.195731583595	3
20	51063	213.196207583595	1
20	51132	213.196685243329	3
20	51167	213.197161243329	1
20	51268	214.195731583595	3
20	51299	214.196207583595	1
20	51369	214.196685243329	3
20	51404	214.197161243329	1
20	51505	215.195731583595	3
20	51536	215.196207583595	1
20	51605	215.196685243329	3
20	51640	215.197161243329	1
20	51741	216.195731583595	3
20	51772	216.196207583595	1
20	51842	216.196685243329	3
20	51877	216.197161243329	1
20	51977	217.195731583595	3
20	52008	217.196207583595	1
20	52078	217.196685243329	3
20	52113	217.197161243329	1
20	52214	218.195731583595	3
20	52245	218.196207583595	1
20	52315	218.196685243329	3
20	52350	218.197161243329	1
20	52450	219.195731583595	3
20	52481	219.196207583595	1
20	52550	219.196685243329	3
20	52585	219.197161243329	1
20	52687	220.195731583595	3
20	52718	220.196207583595	1
20	52788	220.196685243329	3
20	52823	220.197161243329	1
20	52923	221.195731583595	3
20	52954	221.196207583595	1
20	53023	221.196685243329	3
20	53058	221.197161243329	1
20	53159	222.195731583595	3
20	53190	222.196207583595	1
20	53261	222.196685243329	3
20	53296	222.197161243329	1
20	53396	223.195731583595	3
20	53427	223.196207583595	1
20	53496	223.196685243329	3
20	53531	223.197161243329	1
20	53632	224.195731583595	3
20	53663	224.196207583595	1
20	53733	224.196685243329	3
20	53768	224.197161243329	1
20	53869	225.195731583595	3
20	53900	225.196207583595	1
20	53969	225.196685243329	3
20	54004	225.197161243329	1
20	54105	226.195731583595	3
20	54136	226.196207583595	1
20	54206	226.196685243329	3
20	54241	226.197161243329	1
20	54341	227.195731583595	3
20	54372	227.196207583595	1
20	54442	227.196685243329	3
20	54477	227.197161243329	1
20	54578	228.195731583595	3
20	54609	228.196207583595	1
20	54679	228.196685243329	3
20	54714	228.197161243329	1
20	54814	229.195731583595	3
20	54845	229.196207583595	1
20	54914	229.196685243329	3
20	54949	229.197161243329	1
20	55051	230.195731583595	3
20	55082	230.196207583595	1
20	55152	230.196685243329	3
20	55187	230.197161243329	1
20	55287	231.195731583595	3
20	55318	231.196207583595	1
20	55387	231.196685243329	3
20	55422	231.197161243329	1
20	55523	232.195731583595	3
20	55554	232.196207583595	1
20	55625	232.196685243329	3
20	55660	232.197161243329	1
20	55760	233.195731583595	3
20	55791	233.196207583595	1
20	55860	233.196685243329	3
20	55895	233.197161243329	1
20	55996	234.195731583595	3
20	56027	234.196207583595	1
20	56097	234.196685243329	3
20	56132	234.197161243329	1
20	56233	235.195731583595	3
20	56264	235.196207583595	1
20	56333	235.196685243329	3
20	56368	235.197161243329	1
20	56469	236.195731583595	3
20	56500	236.196207583595	1
20	56570	236.196685243329	3
20	56605	236.197161243329	1
20	56705	237.195731583595	3
20	56736	237.196207583595	1
20	56806	237.196685243329	3
20	56841	237.197161243329	1
20	56942	238.195731583595	3
20	56973	238.196207583595	1
20	57043	238.196685243329	3
20	57078	238.197161243329	1
20	57178	239.195731583595	3
20	57209	239.196207583595	1
20	57278	239.196685243329	3
20	57313	239.197161243329	1
20	57415	240.195731583595	3
20	57446	240.196207583595	1
20	57516	240.196685243329	3
20	57551	240.197161243329	1
20	57651	241.195731583595	3
20	57682	241.196207583595	1
20	57751	241.196685243329	3
20	57786	241.197161243329	1
20	57887	242.195731583595	3
20	57918	242.196207583595	1
20	57989	242.196685243329	3
20	58024	242.197161243329	1
20	58124	243.195731583595	3
20	58155	243.196207583595	1
20	58224	243.196685243329	3
20	58259	243.197161243329	1
20	58360	244.195731583595	3
20	58391	244.196207583595	1
20	58461	244.196685243329	3
20	58506	244.196937243329	1
20	58579	244.197190817707	3
20	58610	244.197666817707	1
20	58713	245.195731583595	3
20	58754	245.195983583595	1
20	58822	245.196237243329	3
20	58857	245.196713243329	1
20	58926	245.197190903063	3
20	58961	245.197666903063	1
20	59064	246.195731583595	3
20	59095	246.196207583595	1
20	59165	246.196685243329	3
20	59200	246.197161243329	1
20	59300	247.195731583595	3
20	59331	247.196207583595	1
20	59401	247.196685243329	3
20	59436	247.197161243329	1
20	59537	248.195731583595	3
20	59568	248.196207583595	1
20	59637	248.196685243329	3
20	59673	248.197161243329	1
20	59773	249.195731583595	3
20	59804	249.196207583595	1
20	59873	249.196685243329	3
20	59908	249.197161243329	1
20	60010	250.195731583595	3
20	60041	250.196207583595	1
20	60110	250.196685243329	3
20	60145	250.197161243329	1
20	60245	251.195731583595	3
20	60276	251.196207583595	1
20	60346	251.196685243329	3
20	60381	251.197161243329	1
20	60482	252.195731583595	3
20	60513	252.196207583595	1
20	60583	252.196685243329	3
20	60618	252.197161243329	1
20	60718	253.195731583595	3
20	60749	253.196207583595	1
20	60819	253.196685243329	3
20	60854	253.197161243329	1
20	60955	254.195731583595	3
20	60986	254.196207583595	1
20	61055	254.196685243329	3
20	61090	254.197161243329	1
20	61191	255.195731583595	3
20	61222	255.196207583595	1
20	61292	255.196685243329	3
20	61327	255.197161243329	1
20	61428	256.195731583595	3
20	61459	256.196207583595	1
20	61528	256.196685243329	3
20	61563	256.197161243329	1
20	61663	257.195731583595	3
20	61694	257.196207583595	1
20	61765	257.196685243329	3
20	61800	257.197161243329	1
20	61901	258.195731583595	3
20	61932	258.196207583595	1
20	62001	258.196685243329	3
20	62036	258.197161243329	1
20	62136	259.195731583595	3
20	62167	259.196207583595	1
20	62237	259.196685243329	3
20	62272	259.197161243329	1
20	62374	260.195731583595	3
20	62405	260.196207583595	1
20	62474	260.196685243329	3
20	62509	260.197161243329	1
20	62609	261.195731583595	3
20	62640	261.196207583595	1
20	62710	261.196685243329	3
20	62745	261.197161243329	1
20	62846	262.195731583595	3
20	62877	262.196207583595	1
20	62947	262.196685243329	3
20	62982	262.197161243329	1
20	63082	263.195731583595	3
20	63113	263.196207583595	1
20	63183	263.196685243329	3
20	63218	263.197161243329	1
20	63319	264.195731583595	3
20	63350	264.196207583595	1
20	63419	264.196685243329	3
20	63454	264.197161243329	1
20	63555	265.195731583595	3
20	63586	265.196207583595	1
20	63656	265.196685243329	3
20	63691	265.197161243329	1
20	63792	266.195731583595	3
20	63823	266.196207583595	1
20	63892	266.196685243329	3
20	63927	266.197161243329	1
20	64027	267.195731583595	3
20	64058	267.196207583595	1
20	64129	267.196685243329	3
20	64164	267.197161243329	1
20	64265	268.195731583595	3
20	64296	268.196207583595	1
20	64365	268.196685243329	3
20	64400	268.197161243329	1
20	64500	269.195731583595	3
20	64531	269.196207583595	1
20	64601	269.196685243329	3
20	64636	269.197161243329	1
20	64738	270.195731583595	3
20	64769	270.196207583595	1
20	64838	270.196685243329	3
20	64873	270.197161243329	1
20	64973	271.195731583595	3
20	65004	271.196207583595	1
20	65074	271.196685243329	3
20	65109	271.197161243329	1
20	65210	272.195731583595	3
20	65241	272.196207583595	1
20	65311	272.196685243329	3
20	65346	272.197161243329	1
20	65446	273.195731583595	3
20	65477	273.196207583595	1
20	65547	273.196685243329	3
20	65582	273.197161243329	1
20	65683	274.195731583595	3
20	65714	274.196207583595	1
20	65783	274.196685243329	3
20	65818	274.197161243329	1
20	65919	275.195731583595	3
20	65950	275.196207583595	1
20	66020	275.196685243329	3
20	66055	275.197161243329	1
20	66156	276.195731583595	3
20	66187	276.196207583595	1
20	66256	276.196685243329	3
20	66291	276.197161243329	1
20	66391	277.195731583595	3
20	66422	277.196207583595	1
20	66493	277.196685243329	3
20	66528	277.197161243329	1
20	66629	278.195731583595	3
20	66660	278.196207583595	1
20	66729	278.196685243329	3
20	66764	278.197161243329	1
20	66864	279.195731583595	3
20	66895	279.196207583595	1
20	66965	279.196685243329	3
20	67000	279.197161243329	1
20	67102	280.195731583595	3
20	67133	280.196207583595	1
20	67202	280.196685243329	3
20	67237	280.197161243329	1
20	67337	281.195731583595	3
20	67368	281.196207583595	1
20	67438	281.196685243329	3
20	67473	281.197161243329	1
20	67574	282.195731583595	3
20	67605	282.196207583595	1
20	67675	282.196685243329	3
20	67710	282.197161243329	1
20	67810	283.195731583595	3
20	67841	283.196207583595	1
20	67911	283.196685243329	3
20	67946	283.197161243329	1
20	68047	284.195731583595	3
20	68078	284.196207583595	1
20	68147	284.196685243329	3
20	68182	284.197161243329	1
20	68283	285.195731583595	3
20	68314	285.196207583595	1
20	68384	285.196685243329	3
20	68419	285.197161243329	1
20	68520	286.195731583595	3
20	68551	286.196207583595	1
20	68620	286.196685243329	3
20	68655	286.197161243329	1
20	68755	287.195731583595	3
20	68786	287.196207583595	1
20	68857	287.196685243329	3
20	68892	287.197161243329	1
20	68993	288.195731583595	3
20	69024	288.196207583595	1
20	69093	288.196685243329	3
20	69128	288.197161243329	1
20	69228	289.195731583595	3
20	69259	289.196207583595	1
20	69329	289.196685243329	3
20	69364	289.197161243329	1
20	69466	290.195731583595	3
20	69497	290.196207583595	1
20	69566	290.196685243329	3
20	69601	290.197161243329	1
20	69701	291.195731583595	3
20	69732	291.196207583595	1
20	69802	291.196685243329	3
20	69837	291.197161243329	1
20	69938	292.195731583595	3
20	69969	292.196207583595	1
20	70039	292.196685243329	3
20	70074	292.197161243329	1
20	70174	293.195731583595	3
20	70205	293.196207583595	1
20	70275	293.196685243329	3
20	70310	293.197161243329	1
20	70411	294.195731583595	3
20	70442	294.196207583595	1
20	70511	294.196685243329	3
20	70546	294.197161243329	1
20	70647	295.195731583595	3
20	70678	295.196207583595	1
20	70748	295.196685243329	3
20	70783	295.197161243329	1
20	70884	296.195731583595	3
20	70915	296.196207583595	1
20	70984	296.196685243329	3
20	71019	296.197161243329	1
20	71119	297.195731583595	3
20	71150	297.196207583595	1
20	71221	297.196685243329	3
20	71256	297.197161243329	1
20	71357	298.195731583595	3
20	71388	298.196207583595	1
20	71457	298.196685243329	3
20	71492	298.197161243329	1
20	71592	299.195731583595	3
20	71623	299.196207583595	1
20	71693	299.196685243329	3
20	71728	299.197161243329	1
20	71830	300.195731583595	3
20	71861	300.196207583595	1
20	71930	300.196685243329	3
20	71965	300.197161243329	1
20	72065	301.195731583595	3
20	72096	301.196207583595	1
20	72166	301.196685243329	3
20	72201	301.197161243329	1
20	72302	302.195731583595	3
20	72333	302.196207583595	1
20	72403	302.196685243329	3
20	72438	302.197161243329	1
20	72538	303.195731583595	3
20	72569	303.196207583595	1
20	72639	303.196685243329	3
20	72674	303.197161243329	1
20	72775	304.195731583595	3
20	72806	304.196207583595	1
20	72875	304.196685243329	3
20	72910	304.197161243329	1
20	73011	305.195731583595	3
20	73042	305.196207583595	1
20	73112	305.196685243329	3
20	73147	305.197161243329	1
20	73248	306.195731583595	3
20	73279	306.196207583595	1
20	73348	306.196685243329	3
20	73383	306.197161243329	1
20	73483	307.195731583595	3
20	73514	307.196207583595	1
20	73585	307.196685243329	3
20	73620	307.197161243329	1
20	73721	308.195731583595	3
20	73752	308.196207583595	1
20	73821	308.196685243329	3
20	73856	308.197161243329	1
20	73956	309.195731583595	3
20	73987	309.196207583595	1
20	74057	309.196685243329	3
20	74092	309.197161243329	1
20	74194	310.195731583595	3
20	74225	310.196207583595	1
20	74294	310.196685243329	3
20	74329	310.197161243329	1
20	74429	311.195731583595	3
20	74460	311.196207583595	1
20	74530	311.196685243329	3
20	74565	311.197161243329	1
20	74666	312.195731583595	3
20	74697	312.196207583595	1
20	74767	312.196685243329	3
20	74802	312.197161243329	1
20	74902	313.195731583595	3
20	74933	313.196207583595	1
20	75003	313.196685243329	3
20	75038	313.197161243329	1
20	75139	314.195731583595	3
20	75170	314.196207583595	1
20	75239	314.196685243329	3
20	75274	314.197161243329	1
20	75375	315.195731583595	3
20	75406	315.196207583595	1
20	75476	315.196685243329	3
20	75511	315.197161243329	1
20	75612	316.195731583595	3
20	75643	316.196207583595	1
20	75712	316.196685243329	3
20	75747	316.197161243329	1
20	75847	317.195731583595	3
20	75878	317.196207583595	1
20	75949	317.196685243329	3
20	75984	317.197161243329	1
20	76085	318.195731583595	3
20	76116	318.196207583595	1
20	76185	318.196685243329	3
20	76220	318.197161243329	1
20	76320	319.195731583595	3
20	76351	319.196207583595	1
20	76421	319.196685243329	3
20	76456	319.197161243329	1
20	76558	320.195731583595	3
20	76589	320.196207583595	1
20	76658	320.196685243329	3
20	76693	320.197161243329	1
20	76793	321.195731583595	3
20	76824	321.196207583595	1
20	76894	321.196685243329	3
20	76929	321.197161243329	1
20	77030	322.195731583595	3
20	77061	322.196207583595	1
20	77131	322.196685243329	3
20	77166	322.197161243329	1
20	77266	323.195731583595	3
20	77297	323.196207583595	1
20	77367	323.196685243329	3
20	77402	323.197161243329	1
[...]
219	66058	275.197161243329	0.001907234112
219	66294	276.197161243329	0.001907234112
219	66531	277.197161243329	0.001907234112
219	66767	278.197161243329	0.001907234112
219	67003	279.197161243329	0.001907234112
219	67240	280.197161243329	0.001907234112
219	67476	281.197161243329	0.001907234112
219	67713	282.197161243329	0.001907234112
219	67949	283.197161243329	0.001907234112
219	68185	284.197161243329	0.001907234112
219	68422	285.197161243329	0.001907234112
219	68658	286.197161243329	0.001907234112
219	68895	287.197161243329	0.001907234112
219	69131	288.197161243329	0.001907234112
219	69367	289.197161243329	0.001907234112
219	69604	290.197161243329	0.001907234112
219	69840	291.197161243329	0.001907234112
219	70077	292.197161243329	0.001907234112
219	70313	293.197161243329	0.001907234112
219	70549	294.197161243329	0.001907234112
219	70786	295.197161243329	0.001907234112
219	71022	296.197161243329	0.001907234112
219	71259	297.197161243329	0.001907234112
219	71495	298.197161243329	0.001907234112
219	71731	299.197161243329	0.001907234112
219	71968	300.197161243329	0.001907234112
219	72204	301.197161243329	0.001907234112
219	72441	302.197161243329	0.001907234112
219	72677	303.197161243329	0.001907234112
219	72913	304.197161243329	0.001907234112
219	73150	305.197161243329	0.001907234112
219	73386	306.197161243329	0.001907234112
219	73623	307.197161243329	0.001907234112
219	73859	308.197161243329	0.001907234112
219	74095	309.197161243329	0.001907234112
219	74332	310.197161243329	0.001907234112
219	74568	311.197161243329	0.001907234112
219	74805	312.197161243329	0.001907234112
219	75041	313.197161243329	0.001907234112
219	75277	314.197161243329	0.001907234112
219	75514	315.197161243329	0.001907234112
219	75750	316.197161243329	0.001907234112
219	75987	317.197161243329	0.001907234112
219	76223	318.197161243329	0.001907234112
219	76459	319.197161243329	0.001907234112
219	76696	320.197161243329	0.001907234112
219	76932	321.197161243329	0.001907234112
219	77169	322.197161243329	0.001907234112
219	77405	323.197161243329	0.001907234112
219	77641	324.197161243329	0.001907234112
219	77878	325.197161243329	0.001907234112
219	78114	326.197161243329	0.001907234112
219	78351	327.197161243329	0.001907234112
219	78587	328.197161243329	0.001907234112
219	78823	329.197161243329	0.001907234112
219	79060	330.197161243329	0.001907234112
219	79296	331.197161243329	0.001907234112
219	79533	332.197161243329	0.001907234112
219	79769	333.197161243329	0.001907234112
219	80005	334.197161243329	0.001907234112
219	80242	335.197161243329	0.001907234112
219	80478	336.197161243329	0.001907234112
219	80715	337.197161243329	0.001907234112
219	80951	338.197161243329	0.001907234112
219	81187	339.197161243329	0.001907234112
219	81424	340.197161243329	0.001907234112
219	81660	341.197161243329	0.001907234112
219	81897	342.197161243329	0.001907234112
219	82133	343.197161243329	0.001907234112
219	82369	344.197161243329	0.001907234112
219	82606	345.197161243329	0.001907234112
219	82842	346.197161243329	0.001907234112
219	83079	347.197161243329	0.001907234112
219	83315	348.197161243329	0.001907234112
219	83551	349.197161243329	0.001907234112
219	83788	350.197161243329	0.001907234112
219	84024	351.197161243329	0.001907234112
219	84261	352.197161243329	0.001907234112
219	84497	353.197161243329	0.001907234112
219	84733	354.197161243329	0.001907234112
219	84970	355.197161243329	0.001907234112
219	85206	356.197161243329	0.001907234112
219	85443	357.197161243329	0.001907234112
219	85679	358.197161243329	0.001907234112
219	85915	359.197161243329	0.001907234112
219	86152	360.197161243329	0.001907234112
219	86388	361.197161243329	0.001907234112
219	86625	362.197161243329	0.001907234112
219	86861	363.197161243329	0.001907234112
219	87097	364.197161243329	0.001907234112
219	87555	365.198172477441	0.002918468224
219	87795	366.197161243329	0.001907234112
219	88032	367.197161243329	0.001907234112
219	88268	368.197161243329	0.001907234112
219	88504	369.197161243329	0.001907234112
219	88741	370.197161243329	0.001907234112
219	88977	371.197161243329	0.001907234112
219	89214	372.197161243329	0.001907234112
219	89450	373.197161243329	0.001907234112
219	89686	374.197161243329	0.001907234112
219	89923	375.197161243329	0.001907234112
219	90159	376.197161243329	0.001907234112
219	90396	377.197161243329	0.001907234112
219	90632	378.197161243329	0.001907234112
219	90868	379.197161243329	0.001907234112
219	91105	380.197161243329	0.001907234112
219	91341	381.197161243329	0.001907234112
219	91578	382.197161243329	0.001907234112
219	91814	383.197161243329	0.001907234112
219	92050	384.197161243329	0.001907234112
219	92287	385.197161243329	0.001907234112
219	92523	386.197161243329	0.001907234112
219	92760	387.197161243329	0.001907234112
219	92996	388.197161243329	0.001907234112
219	93232	389.197161243329	0.001907234112
219	93469	390.197161243329	0.001907234112
219	93705	391.197161243329	0.001907234112
219	93942	392.197161243329	0.001907234112
219	94178	393.197161243329	0.001907234112
219	94414	394.197161243329	0.001907234112
219	94651	395.197161243329	0.001907234112
219	94887	396.197161243329	0.001907234112
219	95124	397.197161243329	0.001907234112
219	95360	398.197161243329	0.001907234112
219	95596	399.197161243329	0.001907234112
219	95833	400.197161243329	0.001907234112
219	96069	401.197161243329	0.001907234112
219	96306	402.197161243329	0.001907234112
219	96542	403.197161243329	0.001907234112
219	96778	404.197161243329	0.001907234112
219	97015	405.197161243329	0.001907234112
219	97251	406.197161243329	0.001907234112
219	97488	407.197161243329	0.001907234112
219	97724	408.197161243329	0.001907234112
219	97960	409.197161243329	0.001907234112
219	98197	410.197161243329	0.001907234112
219	98433	411.197161243329	0.001907234112
219	98670	412.197161243329	0.001907234112
219	98906	413.197161243329	0.001907234112
219	99142	414.197161243329	0.001907234112
219	99379	415.197161243329	0.001907234112
219	99615	416.197161243329	0.001907234112
219	99852	417.197161243329	0.001907234112
219	100088	418.197161243329	0.001907234112
219	100324	419.197161243329	0.001907234112
219	100561	420.197161243329	0.001907234112
219	100797	421.197161243329	0.001907234112
219	101034	422.197161243329	0.001907234112
219	101270	423.197161243329	0.001907234112
219	101506	424.197161243329	0.001907234112
219	101743	425.197161243329	0.001907234112
219	101979	426.197161243329	0.001907234112
219	102216	427.197161243329	0.001907234112
219	102452	428.197161243329	0.001907234112
219	102688	429.197161243329	0.001907234112
219	102925	430.197161243329	0.001907234112
219	103161	431.197161243329	0.001907234112
219	103398	432.197161243329	0.001907234112
219	103634	433.197161243329	0.001907234112
219	103870	434.197161243329	0.001907234112
219	104107	435.197161243329	0.001907234112
219	104343	436.197161243329	0.001907234112
219	104580	437.197161243329	0.001907234112
219	104816	438.197161243329	0.001907234112
219	105052	439.197161243329	0.001907234112
219	105289	440.197161243329	0.001907234112
219	105525	441.197161243329	0.001907234112
219	105762	442.197161243329	0.001907234112
219	105998	443.197161243329	0.001907234112
219	106234	444.197161243329	0.001907234112
219	106471	445.197161243329	0.001907234112
219	106707	446.197161243329	0.001907234112
219	106944	447.197161243329	0.001907234112
219	107180	448.197161243329	0.001907234112
219	107416	449.197161243329	0.001907234112
219	107653	450.197161243329	0.001907234112
219	107889	451.197161243329	0.001907234112
219	108126	452.197161243329	0.001907234112
219	108362	453.197161243329	0.001907234112
219	108598	454.197161243329	0.001907234112
219	108835	455.197161243329	0.001907234112
219	109071	456.197161243329	0.001907234112
219	109308	457.197161243329	0.001907234112
219	109544	458.197161243329	0.001907234112
219	109780	459.197161243329	0.001907234112
219	110017	460.197161243329	0.001907234112
219	110253	461.197161243329	0.001907234112
219	110490	462.197161243329	0.001907234112
219	110726	463.197161243329	0.001907234112
219	110962	464.197161243329	0.001907234112
219	111199	465.197161243329	0.001907234112
219	111435	466.197161243329	0.001907234112
219	111672	467.197161243329	0.001907234112
219	111908	468.197161243329	0.001907234112
219	112144	469.197161243329	0.001907234112
219	112381	470.197161243329	0.001907234112
219	112617	471.197161243329	0.001907234112
219	112854	472.197161243329	0.001907234112
219	113090	473.197161243329	0.001907234112
219	113326	474.197161243329	0.001907234112
219	113563	475.197161243329	0.001907234112
219	113799	476.197161243329	0.001907234112
219	114036	477.197161243329	0.001907234112
219	114272	478.197161243329	0.001907234112
219	114508	479.197161243329	0.001907234112
219	114745	480.197161243329	0.001907234112
219	114981	481.197161243329	0.001907234112
219	115218	482.197161243329	0.001907234112
219	115454	483.197161243329	0.001907234112
219	115690	484.197161243329	0.001907234112
219	115927	485.197161243329	0.001907234112
219	116385	486.198172477441	0.002918468224
219	116626	487.197161243329	0.001907234112
219	116862	488.197161243329	0.001907234112
219	117097	489.197161243329	0.001907234112
219	117335	490.197161243329	0.001907234112
219	117570	491.197161243329	0.001907234112
219	117808	492.197161243329	0.001907234112
219	118043	493.197161243329	0.001907234112
219	118280	494.197161243329	0.001907234112
219	118516	495.197161243329	0.001907234112
219	118753	496.197161243329	0.001907234112
219	118989	497.197161243329	0.001907234112
219	119226	498.197161243329	0.001907234112
219	119461	499.197161243329	0.001907234112
219	119699	500.197161243329	0.001907234112
219	119934	501.197161243329	0.001907234112
219	120172	502.197161243329	0.001907234112
219	120407	503.197161243329	0.001907234112
219	120644	504.197161243329	0.001907234112
219	120880	505.197161243329	0.001907234112
219	121117	506.197161243329	0.001907234112
219	121353	507.197161243329	0.001907234112
219	121590	508.197161243329	0.001907234112
219	121825	509.197161243329	0.001907234112
219	122063	510.197161243329	0.001907234112
219	122298	511.197161243329	0.001907234112
219	122536	512.197161243329	0.001907234112
219	122771	513.197161243329	0.001907234112
219	123008	514.197161243329	0.001907234112
219	123244	515.197161243329	0.001907234112
219	123481	516.197161243329	0.001907234112
219	123717	517.197161243329	0.001907234112
219	123954	518.197161243329	0.001907234112
219	124189	519.197161243329	0.001907234112
219	124427	520.197161243329	0.001907234112
219	124662	521.197161243329	0.001907234112
219	124900	522.197161243329	0.001907234112
219	125135	523.197161243329	0.001907234112
219	125372	524.197161243329	0.001907234112
219	125608	525.197161243329	0.001907234112
219	125845	526.197161243329	0.001907234112
219	126081	527.197161243329	0.001907234112
219	126318	528.197161243329	0.001907234112
219	126553	529.197161243329	0.001907234112
219	126791	530.197161243329	0.001907234112
219	127026	531.197161243329	0.001907234112
219	127264	532.197161243329	0.001907234112
219	127499	533.197161243329	0.001907234112
219	127736	534.197161243329	0.001907234112
219	127972	535.197161243329	0.001907234112
219	128209	536.197161243329	0.001907234112
219	128445	537.197161243329	0.001907234112
219	128682	538.197161243329	0.001907234112
219	128917	539.197161243329	0.001907234112
219	129155	540.197161243329	0.001907234112
219	129390	541.197161243329	0.001907234112
219	129628	542.197161243329	0.001907234112
219	129863	543.197161243329	0.001907234112
219	130100	544.197161243329	0.001907234112
219	130336	545.197161243329	0.001907234112
219	130573	546.197161243329	0.001907234112
219	130809	547.197161243329	0.001907234112
219	131046	548.197161243329	0.001907234112
219	131281	549.197161243329	0.001907234112
219	131519	550.197161243329	0.001907234112
219	131754	551.197161243329	0.001907234112
219	131992	552.197161243329	0.001907234112
219	132227	553.197161243329	0.001907234112
219	132464	554.197161243329	0.001907234112
219	132700	555.197161243329	0.001907234112
219	132937	556.197161243329	0.001907234112
219	133173	557.197161243329	0.001907234112
219	133410	558.197161243329	0.001907234112
219	133645	559.197161243329	0.001907234112
219	133883	560.197161243329	0.001907234112
219	134118	561.197161243329	0.001907234112
219	134356	562.197161243329	0.001907234112
219	134591	563.197161243329	0.001907234112
219	134828	564.197161243329	0.001907234112
219	135064	565.197161243329	0.001907234112
219	135301	566.197161243329	0.001907234112
219	135537	567.197161243329	0.001907234112
219	135774	568.197161243329	0.001907234112
219	136009	569.197161243329	0.001907234112
219	136247	570.197161243329	0.001907234112
219	136482	571.197161243329	0.001907234112
219	136720	572.197161243329	0.001907234112
219	136955	573.197161243329	0.001907234112
219	137192	574.197161243329	0.001907234112
219	137428	575.197161243329	0.001907234112
219	137665	576.197161243329	0.001907234112
219	137901	577.197161243329	0.001907234112
219	138138	578.197161243329	0.001907234112
219	138373	579.197161243329	0.001907234112
219	138611	580.197161243329	0.001907234112
219	138846	581.197161243329	0.001907234112
219	139084	582.197161243329	0.001907234112
219	139319	583.197161243329	0.001907234112
219	139556	584.197161243329	0.001907234112
219	139792	585.197161243329	0.001907234112
219	140029	586.197161243329	0.001907234112
219	140265	587.197161243329	0.001907234112
219	140502	588.197161243329	0.001907234112
219	140737	589.197161243329	0.001907234112
219	140975	590.197161243329	0.001907234112
219	141210	591.197161243329	0.001907234112
219	141448	592.197161243329	0.001907234112
219	141683	593.197161243329	0.001907234112
219	141920	594.197161243329	0.001907234112
219	142156	595.197161243329	0.001907234112
219	142393	596.197161243329	0.001907234112
219	142629	597.197161243329	0.001907234112
219	142866	598.197161243329	0.001907234112
219	143101	599.197161243329	0.001907234112
219	143339	600.197161243329	0.001907234112
219	143574	601.197161243329	0.001907234112
219	143812	602.197161243329	0.001907234112
219	144047	603.197161243329	0.001907234112
219	144284	604.197161243329	0.001907234112
219	144520	605.197161243329	0.001907234112
219	144871	606.197666817707	0.00241280849
219	145222	607.197666903063	0.002412893846
219	145461	608.197161243329	0.001907234112
219	145696	609.197161243329	0.001907234112
219	145934	610.197161243329	0.001907234112
219	146169	611.197161243329	0.001907234112
219	146406	612.197161243329	0.001907234112
219	146642	613.197161243329	0.001907234112
219	146878	614.197161243329	0.001907234112
219	147115	615.197161243329	0.001907234112
219	147351	616.197161243329	0.001907234112
219	147588	617.197161243329	0.001907234112
219	147824	618.197161243329	0.001907234112
219	148060	619.197161243329	0.001907234112
219	148297	620.197161243329	0.001907234112
219	148533	621.197161243329	0.001907234112
219	148770	622.197161243329	0.001907234112
219	149006	623.197161243329	0.001907234112
219	149242	624.197161243329	0.001907234112
219	149479	625.197161243329	0.001907234112
219	149715	626.197161243329	0.001907234112
219	149952	627.197161243329	0.001907234112
219	150188	628.197161243329	0.001907234112
219	150424	629.197161243329	0.001907234112
219	150661	630.197161243329	0.001907234112
219	150897	631.197161243329	0.001907234112
219	151134	632.197161243329	0.001907234112
219	151370	633.197161243329	0.001907234112
219	151606	634.197161243329	0.001907234112
219	151843	635.197161243329	0.001907234112
219	152079	636.197161243329	0.001907234112
219	152316	637.197161243329	0.001907234112
219	152552	638.197161243329	0.001907234112
219	152788	639.197161243329	0.001907234112
219	153025	640.197161243329	0.001907234112
219	153261	641.197161243329	0.001907234112
219	153498	642.197161243329	0.001907234112
219	153734	643.197161243329	0.001907234112
219	153970	644.197161243329	0.001907234112
219	154207	645.197161243329	0.001907234112
219	154443	646.197161243329	0.001907234112
219	154680	647.197161243329	0.001907234112
219	154916	648.197161243329	0.001907234112
219	155152	649.197161243329	0.001907234112
219	155389	650.197161243329	0.001907234112
219	155625	651.197161243329	0.001907234112
219	155862	652.197161243329	0.001907234112
219	156098	653.197161243329	0.001907234112
219	156334	654.197161243329	0.001907234112
219	156571	655.197161243329	0.001907234112
219	156807	656.197161243329	0.001907234112
219	157044	657.197161243329	0.001907234112
219	157280	658.197161243329	0.001907234112
219	157516	659.197161243329	0.001907234112
219	157753	660.197161243329	0.001907234112
219	157989	661.197161243329	0.001907234112
219	158226	662.197161243329	0.001907234112
219	158462	663.197161243329	0.001907234112
219	158698	664.197161243329	0.001907234112
219	158935	665.197161243329	0.001907234112
219	159171	666.197161243329	0.001907234112
219	159408	667.197161243329	0.001907234112
219	159644	668.197161243329	0.001907234112
219	159880	669.197161243329	0.001907234112
219	160117	670.197161243329	0.001907234112
219	160353	671.197161243329	0.001907234112
219	160590	672.197161243329	0.001907234112
219	160826	673.197161243329	0.001907234112
219	161062	674.197161243329	0.001907234112
219	161299	675.197161243329	0.001907234112
219	161535	676.197161243329	0.001907234112
219	161772	677.197161243329	0.001907234112
219	162008	678.197161243329	0.001907234112
219	162244	679.197161243329	0.001907234112
219	162481	680.197161243329	0.001907234112
219	162717	681.197161243329	0.001907234112
219	162954	682.197161243329	0.001907234112
219	163190	683.197161243329	0.001907234112
219	163426	684.197161243329	0.001907234112
219	163663	685.197161243329	0.001907234112
219	163899	686.197161243329	0.001907234112
219	164136	687.197161243329	0.001907234112
219	164372	688.197161243329	0.001907234112
219	164608	689.197161243329	0.001907234112
219	164845	690.197161243329	0.001907234112
219	165081	691.197161243329	0.001907234112
219	165318	692.197161243329	0.001907234112
219	165554	693.197161243329	0.001907234112
219	165790	694.197161243329	0.001907234112
219	166027	695.197161243329	0.001907234112
219	166263	696.197161243329	0.001907234112
219	166500	697.197161243329	0.001907234112
219	166736	698.197161243329	0.001907234112
219	166972	699.197161243329	0.001907234112
219	167209	700.197161243329	0.001907234112
219	167445	701.197161243329	0.001907234112
219	167682	702.197161243329	0.001907234112
219	167918	703.197161243329	0.001907234112
219	168154	704.197161243329	0.001907234112
219	168391	705.197161243329	0.001907234112
219	168627	706.197161243329	0.001907234112
219	168864	707.197161243329	0.001907234112
219	169100	708.197161243329	0.001907234112
219	169336	709.197161243329	0.001907234112
219	169573	710.197161243329	0.001907234112
219	169809	711.197161243329	0.001907234112
219	170046	712.197161243329	0.001907234112
219	170282	713.197161243329	0.001907234112
219	170518	714.197161243329	0.001907234112
219	170755	715.197161243329	0.001907234112
219	170991	716.197161243329	0.001907234112
219	171228	717.197161243329	0.001907234112
219	171464	718.197161243329	0.001907234112
219	171700	719.197161243329	0.001907234112
219	171937	720.197161243329	0.001907234112
219	172173	721.197161243329	0.001907234112
219	172410	722.197161243329	0.001907234112
219	172646	723.197161243329	0.001907234112
219	172882	724.197161243329	0.001907234112
219	173119	725.197161243329	0.001907234112
219	173355	726.197161243329	0.001907234112
219	173813	727.198172477441	0.002918468224
219	174053	728.197161243329	0.001907234112
219	174289	729.197161243329	0.001907234112
219	174526	730.197161243329	0.001907234112
219	174762	731.197161243329	0.001907234112
219	174999	732.197161243329	0.001907234112
219	175235	733.197161243329	0.001907234112
219	175471	734.197161243329	0.001907234112
219	175708	735.197161243329	0.001907234112
219	175944	736.197161243329	0.001907234112
219	176181	737.197161243329	0.001907234112
219	176417	738.197161243329	0.001907234112
220	29706	124.195254009217	28
220	115964	486.195254009217	28
221	29922	124.196489200651	28
221	58759	245.195983626273	28
221	116180	486.196489200651	28
221	145016	607.195983626273	28

