version 2
run DoSAttack-0-20260205-17:56:11-23544
attr configname DoSAttack
attr datetime 20260205-17:56:11
attr experiment DoSAttack
attr inifile omnetpp.ini
attr iterationvars ""
attr iterationvarsf ""
attr measurement ""
attr network evattack.simulations.dos_attack.DoSScenario
attr processid 23544
attr repetition 0
attr replication #0
attr resultdir results
attr runnumber 0
attr seedset 0
param *.manager.moduleType "\"evattack.veins_inet.VeinsInetCar\""
param *.manager.moduleName "\"node\""
param *.manager.host "\"localhost\""
param *.manager.port 9999
param *.manager.autoShutdown true
param *.manager.updateInterval 0.1s
param *.manager.launchConfig "xmldoc(\"square.launchd.xml\")"
param *.node[*].numApps 1
param *.node[*].app[0].typename "\"VeinsInetDoSApplication\""
param *.node[0].app[0].isAttacker true
param *.node[0].app[0].attackInterval 0.1s
param *.node[0].app[0].attackPacketSize 512B
param *.node[0].app[0].attackStartTime 5s
param *.node[0].app[0].attackDuration 20s
param *.node[1].app[0].isAttacker false
param *.node[2].app[0].isAttacker false
param *.node[*].wlan[0].opMode "\"p\""
param *.node[*].wlan[0].radio.bandName "\"5.9 GHz\""
param *.node[*].wlan[0].radio.channelNumber 3
param *.node[*].wlan[0].radio.transmitter.power 20mW
param *.node[*].wlan[0].radio.bandwidth "10 MHz"
param *.node[*].ipv4.configurator.typename "\"HostAutoConfigurator\""
param *.node[*].ipv4.configurator.interfaces "\"wlan0\""
param *.node[*].ipv4.configurator.mcastGroups "\"224.0.0.1\""
param *.node[*].mobility.typename "\"VeinsInetMobility\""

vector 0 DoSScenario.node[0].wlan[0].radio radioMode:vector ETV
attr interpolationmode sample-hold
attr source radioModeChanged
attr title "Radio mode, vector"
vector 1 DoSScenario.node[0].wlan[0].radio radioChannel:vector ETV
attr interpolationmode sample-hold
attr source radioChannelChanged
attr title "Radio channel, vector"
vector 2 DoSScenario.node[0].wlan[0].radio receptionState:vector ETV
attr interpolationmode sample-hold
attr source receptionStateChanged
attr title "Radio reception state, vector"
vector 3 DoSScenario.node[0].wlan[0].mac.dcf.recoveryProcedure contentionWindowChanged:vector ETV
attr interpolationmode sample-hold
attr title "contention window, vector"
vector 4 DoSScenario.node[1].wlan[0].radio radioMode:vector ETV
attr interpolationmode sample-hold
attr source radioModeChanged
attr title "Radio mode, vector"
vector 5 DoSScenario.node[1].wlan[0].radio radioChannel:vector ETV
attr interpolationmode sample-hold
attr source radioChannelChanged
attr title "Radio channel, vector"
vector 6 DoSScenario.node[1].wlan[0].radio receptionState:vector ETV
attr interpolationmode sample-hold
attr source receptionStateChanged
attr title "Radio reception state, vector"
vector 7 DoSScenario.node[1].wlan[0].mac.dcf.recoveryProcedure contentionWindowChanged:vector ETV
attr interpolationmode sample-hold
attr title "contention window, vector"
vector 8 DoSScenario.node[0].app[0] packetSent:vector(packetBytes) ETV
attr interpolationmode none
attr source packetSent
attr title "packets sent, vector(packetBytes)"
vector 9 DoSScenario.node[0].app[0] packetsSent ETV
vector 10 DoSScenario.node[0].udp packetSent:vector(packetBytes) ETV
attr interpolationmode none
attr source packetSent
attr title "packets sent, vector(packetBytes)"
vector 11 DoSScenario.node[0].lo[0].lo rcvdPkFromHl:vector(packetBytes) ETV
attr interpolationmode none
attr source packetReceivedFromUpper
attr title "packets received from higher layer, vector(packetBytes)"
vector 12 DoSScenario.node[0].lo[0].lo passedUpPk:vector(packetBytes) ETV
attr interpolationmode none
attr source packetSentToUpper
attr title "packets passed to higher layer, vector(packetBytes)"
vector 13 DoSScenario.node[0].wlan[0].mac packetReceivedFromUpper:vector(packetBytes) ETV
attr interpolationmode none
attr title "packets received from upper layer, vector(packetBytes)"
vector 14 DoSScenario.node[0].wlan[0].mac.dcf.channelAccess.pendingQueue packetPushed:vector(packetBytes) ETV
attr interpolationmode none
attr title "packet pushed, vector(packetBytes)"
vector 15 DoSScenario.node[0].wlan[0].mac.dcf.channelAccess.pendingQueue queueLength:vector ETV
attr interpolationmode sample-hold
attr source "count(packetPushed) - count(packetPopped) - count(packetRemoved) - count(packetDropped)"
attr title "queue length, vector"
vector 16 DoSScenario.node[0].wlan[0].mac.dcf.channelAccess.contention backoffPeriodGenerated:vector ETV
attr interpolationmode none
attr title "backoff periods, vector"
vector 17 DoSScenario.node[0].wlan[0].mac.dcf.channelAccess.contention backoffActive:vector ETV
attr interpolationmode sample-hold
attr source count(backoffStarted)-count(backoffStopped)
attr title "backoff active, vector"
vector 18 DoSScenario.node[0].udp packetReceived:vector(packetBytes) ETV
attr interpolationmode none
attr source packetReceived
attr title "packets received, vector(packetBytes)"
vector 19 DoSScenario.node[0].udp passedUpPk:vector(count) ETV
attr interpolationmode none
attr source packetSentToUpper
attr title "packets passed up, vector(count)"
vector 20 DoSScenario.node[0].app[0] packetReceived:vector(packetBytes) ETV
attr interpolationmode none
attr source packetReceived
attr title "packets received, vector(packetBytes)"
vector 21 DoSScenario.node[0].app[0] throughput:vector ETV
attr source throughput(packetReceived)
attr title "throughput, vector"
attr unit bps
vector 22 DoSScenario.node[0].app[0] rcvdPkLifetime:vector ETV
attr interpolationmode none
attr source dataAge(packetReceived)
attr title "received packet lifetime, vector"
attr unit s
vector 23 DoSScenario.node[0].app[0] packetSize ETV
vector 24 DoSScenario.node[0].app[0] packetsReceived ETV
vector 25 DoSScenario.node[0].app[0] bytesReceived ETV
vector 26 DoSScenario.node[0].wlan[0].mac.dcf.channelAccess.pendingQueue packetPopped:vector(packetBytes) ETV
attr interpolationmode none
attr title "packet popped, vector(packetBytes)"
vector 27 DoSScenario.node[0].wlan[0].mac.dcf.channelAccess.pendingQueue queueingTime:vector ETV
attr interpolationmode none
attr source queueingTime(packetPopped)
attr title "queueing times, vector"
attr unit s
vector 28 DoSScenario.node[0].wlan[0].mac.dcf.channelAccess.inProgressFrames queueLength:vector ETV
attr interpolationmode sample-hold
attr source "count(packetEnqueued) - count(packetDequeued)"
attr title "queue length, vector"
vector 29 DoSScenario.node[0].wlan[0].mac.dcf datarateSelected:vector ETV
attr interpolationmode none
attr title "datarates selected, vector"
vector 30 DoSScenario.node[0].wlan[0].mac packetSentToLower:vector(packetBytes) ETV
attr interpolationmode none
attr title "packets sent to lower layer, vector(packetBytes)"
vector 31 DoSScenario.node[0].wlan[0].mac.dcf frameSequenceActive:vector ETV
attr interpolationmode sample-hold
attr source count(frameSequenceStarted)-count(frameSequenceFinished)
attr title "frame sequence active, vector"
vector 32 DoSScenario.node[0].wlan[0].radio transmissionState:vector ETV
attr interpolationmode sample-hold
attr source transmissionStateChanged
attr title "Radio transmission state, vector"
vector 33 DoSScenario.node[0].wlan[0].mac.dcf packetSentToPeer:vector(packetBytes) ETV
attr interpolationmode none
attr title "packets sent, vector(packetBytes)"
vector 34 DoSScenario.node[0].wlan[0].mac.dcf packetSentToPeerMulticast:vector(packetBytes) ETV
attr interpolationmode none
attr source ieee80211Multicast(packetSentToPeer)
attr title "packets sent: multicast, vector(packetBytes)"
vector 35 DoSScenario.node[0].wlan[0].mac.dcf packetSentToPeerWithoutRetry:vector(packetBytes) ETV
attr interpolationmode none
attr source ieee80211NotRetry(packetSentToPeer)
attr title "packets sent: without retry, vector(packetBytes)"
vector 36 DoSScenario.node[0].wlan[0].mac.dcf.channelAccess.inProgressFrames queueingTime:vector ETV
attr interpolationmode none
attr source queueingTime(packetDequeued)
attr title "queueing times, vector"
0	12	1.1	0
0	12	1.1	0
0	12	1.1	2
0	71	5	3
0	75	5.000424	2
1	12	1.1	0
2	12	1.1	1
2	71	5	0
2	75	5.000424	1
3	12	1.1	15
4	36	3.1	0
4	36	3.1	0
4	36	3.1	2
5	36	3.1	0
6	36	3.1	1
6	73	5.000000265982	3
7	36	3.1	15
8	59	5	512
9	59	5	1
10	61	5	520
11	63	5	540
12	63	5	540
13	66	5	542
14	66	5	570
15	66	5	1
15	70	5	0
16	66	5	12
17	66	5	1
17	69	5	0
18	67	5	520
19	67	5	1
20	68	5	512
21	68	0.1	0
21	68	0.2	0
21	68	0.3	0
21	68	0.4	0
21	68	0.5	0
21	68	0.6	0
21	68	0.7	0
21	68	0.8	0
21	68	0.9	0
21	68	1	0
21	68	1.1	0
21	68	1.2	0
21	68	1.3	0
21	68	1.4	0
21	68	1.5	0
21	68	1.6	0
21	68	1.7	0
21	68	1.8	0
21	68	1.9	0
21	68	2	0
21	68	2.1	0
21	68	2.2	0
21	68	2.3	0
21	68	2.4	0
21	68	2.5	0
21	68	2.6	0
21	68	2.7	0
21	68	2.8	0
21	68	2.9	0
21	68	3	0
21	68	3.1	0
21	68	3.2	0
21	68	3.3	0
21	68	3.4	0
21	68	3.5	0
21	68	3.6	0
21	68	3.7	0
21	68	3.8	0
21	68	3.9	0
21	68	4	0
21	68	4.1	0
21	68	4.2	0
21	68	4.3	0
21	68	4.4	0
21	68	4.5	0
21	68	4.6	0
21	68	4.7	0
21	68	4.8	0
21	68	4.9	0
21	68	5	0
22	68	5	0
23	68	5	512
24	68	5	1
25	68	5	512
26	70	5	570
27	70	5	0
28	70	5	1
28	74	5.000424	0
29	70	5	12000000
30	70	5	570
31	70	5	1
31	74	5.000424	0
32	71	5	1
32	72	5	2
32	74	5.000424	1
32	75	5.000424	0
33	74	5.000424	570
34	74	5.000424	570
35	74	5.000424	570
36	74	5.000424	0.000424
vector 37 DoSScenario.node[1].wlan[0].mac packetReceivedFromLower:vector(packetBytes) ETV
attr interpolationmode none
attr title "packets received from lower layer, vector(packetBytes)"
vector 38 DoSScenario.node[1].wlan[0].mac.dcf packetReceivedFromPeer:vector(packetBytes) ETV
attr interpolationmode none
attr title "packets received, vector(packetBytes)"
vector 39 DoSScenario.node[1].wlan[0].mac.dcf packetReceivedFromPeerMulticast:vector(packetBytes) ETV
attr interpolationmode none
attr source ieee80211Multicast(packetReceivedFromPeer)
attr title "packets received: multicast, vector(packetBytes)"
vector 40 DoSScenario.node[1].wlan[0].mac.dcf packetReceivedFromPeerWithoutRetry:vector(packetBytes) ETV
attr interpolationmode none
attr source ieee80211NotRetry(packetReceivedFromPeer)
attr title "packets received: without retry, vector(packetBytes)"
vector 41 DoSScenario.node[1].wlan[0].mac packetSentToUpper:vector(packetBytes) ETV
attr interpolationmode none
attr title "packets sent to upper layer, vector(packetBytes)"
vector 42 DoSScenario.node[1].udp packetReceived:vector(packetBytes) ETV
attr interpolationmode none
attr source packetReceived
attr title "packets received, vector(packetBytes)"
vector 43 DoSScenario.node[1].udp passedUpPk:vector(count) ETV
attr interpolationmode none
attr source packetSentToUpper
attr title "packets passed up, vector(count)"
vector 44 DoSScenario.node[1].app[0] packetReceived:vector(packetBytes) ETV
attr interpolationmode none
attr source packetReceived
attr title "packets received, vector(packetBytes)"
vector 45 DoSScenario.node[1].app[0] throughput:vector ETV
attr source throughput(packetReceived)
attr title "throughput, vector"
attr unit bps
vector 46 DoSScenario.node[1].app[0] rcvdPkLifetime:vector ETV
attr interpolationmode none
attr source dataAge(packetReceived)
attr title "received packet lifetime, vector"
attr unit s
vector 47 DoSScenario.node[1].app[0] packetSize ETV
vector 48 DoSScenario.node[1].app[0] packetsReceived ETV
vector 49 DoSScenario.node[1].app[0] bytesReceived ETV
vector 50 DoSScenario.node[2].wlan[0].radio radioMode:vector ETV
attr interpolationmode sample-hold
attr source radioModeChanged
attr title "Radio mode, vector"
vector 51 DoSScenario.node[2].wlan[0].radio radioChannel:vector ETV
attr interpolationmode sample-hold
attr source radioChannelChanged
attr title "Radio channel, vector"
vector 52 DoSScenario.node[2].wlan[0].radio receptionState:vector ETV
attr interpolationmode sample-hold
attr source receptionStateChanged
attr title "Radio reception state, vector"
vector 53 DoSScenario.node[2].wlan[0].mac.dcf.recoveryProcedure contentionWindowChanged:vector ETV
attr interpolationmode sample-hold
attr title "contention window, vector"
vector 54 DoSScenario.node[0].app[0] interArrivalTime ETV
0	99	5.1	3
2	99	5.1	0
6	76	5.000424265982	1
6	101	5.100000263789	3
8	83	5.1	512
9	83	5.1	2
10	85	5.1	520
11	91	5.1	540
12	91	5.1	540
13	94	5.1	542
14	94	5.1	570
15	94	5.1	1
15	98	5.1	0
16	94	5.1	15
17	94	5.1	1
17	97	5.1	0
18	95	5.1	520
19	95	5.1	2
20	96	5.1	512
21	96	5.1	40960
22	96	5.1	0
23	96	5.1	512
24	96	5.1	2
25	96	5.1	1024
26	98	5.1	570
27	98	5.1	0
28	98	5.1	1
29	98	5.1	12000000
30	98	5.1	570
31	98	5.1	1
32	99	5.1	1
32	100	5.1	2
37	77	5.000424265982	570
38	77	5.000424265982	570
39	77	5.000424265982	570
40	77	5.000424265982	570
41	77	5.000424265982	542
42	80	5.000424265982	520
43	80	5.000424265982	1
44	81	5.000424265982	512
45	81	0.1	0
45	81	0.2	0
45	81	0.3	0
45	81	0.4	0
45	81	0.5	0
45	81	0.6	0
45	81	0.7	0
45	81	0.8	0
45	81	0.9	0
45	81	1	0
45	81	1.1	0
45	81	1.2	0
45	81	1.3	0
45	81	1.4	0
45	81	1.5	0
45	81	1.6	0
45	81	1.7	0
45	81	1.8	0
45	81	1.9	0
45	81	2	0
45	81	2.1	0
45	81	2.2	0
45	81	2.3	0
45	81	2.4	0
45	81	2.5	0
45	81	2.6	0
45	81	2.7	0
45	81	2.8	0
45	81	2.9	0
45	81	3	0
45	81	3.1	0
45	81	3.2	0
45	81	3.3	0
45	81	3.4	0
45	81	3.5	0
45	81	3.6	0
45	81	3.7	0
45	81	3.8	0
45	81	3.9	0
45	81	4	0
45	81	4.1	0
45	81	4.2	0
45	81	4.3	0
45	81	4.4	0
45	81	4.5	0
45	81	4.6	0
45	81	4.7	0
45	81	4.8	0
45	81	4.9	0
45	81	5	0
46	81	5.000424265982	0.000424265982
47	81	5.000424265982	512
48	81	5.000424265982	1
49	81	5.000424265982	512
50	84	5.1	0
50	84	5.1	0
50	84	5.1	2
51	84	5.1	0
52	84	5.1	1
53	84	5.1	15
54	96	5.1	0.1
vector 55 DoSScenario.node[1].app[0] interArrivalTime ETV
vector 56 DoSScenario.node[2].wlan[0].mac packetReceivedFromLower:vector(packetBytes) ETV
attr interpolationmode none
attr title "packets received from lower layer, vector(packetBytes)"
vector 57 DoSScenario.node[2].wlan[0].mac.dcf packetReceivedFromPeer:vector(packetBytes) ETV
attr interpolationmode none
attr title "packets received, vector(packetBytes)"
vector 58 DoSScenario.node[2].wlan[0].mac.dcf packetReceivedFromPeerMulticast:vector(packetBytes) ETV
attr interpolationmode none
attr source ieee80211Multicast(packetReceivedFromPeer)
attr title "packets received: multicast, vector(packetBytes)"
vector 59 DoSScenario.node[2].wlan[0].mac.dcf packetReceivedFromPeerWithoutRetry:vector(packetBytes) ETV
attr interpolationmode none
attr source ieee80211NotRetry(packetReceivedFromPeer)
attr title "packets received: without retry, vector(packetBytes)"
vector 60 DoSScenario.node[2].wlan[0].mac packetSentToUpper:vector(packetBytes) ETV
attr interpolationmode none
attr title "packets sent to upper layer, vector(packetBytes)"
vector 61 DoSScenario.node[2].udp packetReceived:vector(packetBytes) ETV
attr interpolationmode none
attr source packetReceived
attr title "packets received, vector(packetBytes)"
vector 62 DoSScenario.node[2].udp passedUpPk:vector(count) ETV
attr interpolationmode none
attr source packetSentToUpper
attr title "packets passed up, vector(count)"
vector 63 DoSScenario.node[2].app[0] packetReceived:vector(packetBytes) ETV
attr interpolationmode none
attr source packetReceived
attr title "packets received, vector(packetBytes)"
vector 64 DoSScenario.node[2].app[0] throughput:vector ETV
attr source throughput(packetReceived)
attr title "throughput, vector"
attr unit bps
vector 65 DoSScenario.node[2].app[0] rcvdPkLifetime:vector ETV
attr interpolationmode none
attr source dataAge(packetReceived)
attr title "received packet lifetime, vector"
attr unit s
vector 66 DoSScenario.node[2].app[0] packetSize ETV
vector 67 DoSScenario.node[2].app[0] packetsReceived ETV
vector 68 DoSScenario.node[2].app[0] bytesReceived ETV
vector 69 DoSScenario.node[2].app[0] interArrivalTime ETV
11	122	5.2	540
11	153	5.3	540
11	184	5.4	540
11	215	5.5	540
11	246	5.6	540
11	277	5.7	540
11	308	5.8	540
11	339	5.9	540
11	370	6	540
11	401	6.1	540
11	432	6.2	540
11	463	6.3	540
11	494	6.4	540
11	525	6.5	540
11	556	6.6	540
11	587	6.7	540
11	618	6.8	540
11	649	6.9	540
11	680	7	540
11	711	7.1	540
11	742	7.2	540
11	773	7.3	540
11	804	7.4	540
11	835	7.5	540
11	866	7.6	540
11	897	7.7	540
11	928	7.8	540
11	959	7.9	540
11	990	8	540
11	1021	8.1	540
11	1052	8.2	540
11	1083	8.3	540
11	1114	8.4	540
11	1145	8.5	540
11	1176	8.6	540
11	1207	8.7	540
11	1238	8.8	540
11	1269	8.9	540
11	1300	9	540
11	1331	9.1	540
11	1362	9.2	540
11	1393	9.3	540
11	1424	9.4	540
11	1455	9.5	540
11	1486	9.6	540
11	1517	9.7	540
11	1548	9.8	540
11	1579	9.9	540
11	1610	10	540
11	1641	10.1	540
11	1672	10.2	540
11	1703	10.3	540
11	1734	10.4	540
11	1765	10.5	540
11	1796	10.6	540
11	1827	10.7	540
11	1858	10.8	540
11	1889	10.9	540
11	1920	11	540
11	1951	11.1	540
11	1982	11.2	540
11	2013	11.3	540
11	2044	11.4	540
11	2075	11.5	540
11	2106	11.6	540
11	2137	11.7	540
11	2168	11.8	540
11	2199	11.9	540
11	2230	12	540
11	2261	12.1	540
11	2292	12.2	540
11	2323	12.3	540
11	2354	12.4	540
11	2385	12.5	540
11	2416	12.6	540
11	2447	12.7	540
11	2478	12.8	540
11	2509	12.9	540
11	2540	13	540
11	2571	13.1	540
11	2602	13.2	540
11	2633	13.3	540
11	2664	13.4	540
11	2695	13.5	540
11	2726	13.6	540
11	2757	13.7	540
11	2788	13.8	540
11	2819	13.9	540
11	2850	14	540
11	2881	14.1	540
11	2912	14.2	540
11	2943	14.3	540
11	2974	14.4	540
11	3005	14.5	540
11	3036	14.6	540
11	3067	14.7	540
11	3098	14.8	540
11	3129	14.9	540
11	3160	15	540
11	3191	15.1	540
11	3222	15.2	540
11	3253	15.3	540
11	3284	15.4	540
11	3315	15.5	540
11	3346	15.6	540
11	3377	15.7	540
11	3408	15.8	540
11	3439	15.9	540
11	3470	16	540
11	3501	16.1	540
11	3532	16.2	540
11	3563	16.3	540
11	3594	16.4	540
11	3625	16.5	540
11	3656	16.6	540
11	3687	16.7	540
11	3718	16.8	540
11	3749	16.9	540
11	3780	17	540
11	3811	17.1	540
11	3842	17.2	540
11	3873	17.3	540
11	3904	17.4	540
11	3935	17.5	540
11	3966	17.6	540
11	3997	17.7	540
11	4028	17.8	540
11	4059	17.9	540
11	4090	18	540
11	4121	18.1	540
11	4152	18.2	540
11	4183	18.3	540
11	4214	18.4	540
11	4245	18.5	540
11	4276	18.6	540
11	4307	18.7	540
11	4338	18.8	540
11	4369	18.9	540
11	4400	19	540
11	4431	19.1	540
11	4462	19.2	540
11	4493	19.3	540
11	4524	19.4	540
11	4555	19.5	540
11	4586	19.6	540
11	4617	19.7	540
11	4648	19.8	540
11	4679	19.9	540
11	4710	20	540
11	4741	20.1	540
11	4772	20.2	540
11	4803	20.3	540
11	4834	20.4	540
11	4865	20.5	540
11	4896	20.6	540
11	4927	20.7	540
11	4958	20.8	540
11	4989	20.9	540
11	5020	21	540
11	5051	21.1	540
11	5082	21.2	540
11	5113	21.3	540
11	5144	21.4	540
11	5175	21.5	540
11	5206	21.6	540
11	5237	21.7	540
11	5268	21.8	540
11	5299	21.9	540
11	5330	22	540
11	5361	22.1	540
11	5392	22.2	540
11	5423	22.3	540
11	5454	22.4	540
11	5485	22.5	540
11	5516	22.6	540
11	5547	22.7	540
11	5578	22.8	540
11	5609	22.9	540
11	5640	23	540
11	5671	23.1	540
11	5702	23.2	540
11	5733	23.3	540
11	5764	23.4	540
11	5795	23.5	540
11	5826	23.6	540
11	5857	23.7	540
11	5888	23.8	540
11	5919	23.9	540
11	5950	24	540
11	5981	24.1	540
11	6012	24.2	540
11	6043	24.3	540
11	6074	24.4	540
11	6105	24.5	540
11	6136	24.6	540
11	6167	24.7	540
11	6198	24.8	540
11	6229	24.9	540
12	122	5.2	540
12	153	5.3	540
12	184	5.4	540
12	215	5.5	540
12	246	5.6	540
12	277	5.7	540
12	308	5.8	540
12	339	5.9	540
12	370	6	540
12	401	6.1	540
12	432	6.2	540
12	463	6.3	540
12	494	6.4	540
12	525	6.5	540
12	556	6.6	540
12	587	6.7	540
12	618	6.8	540
12	649	6.9	540
12	680	7	540
12	711	7.1	540
12	742	7.2	540
12	773	7.3	540
12	804	7.4	540
12	835	7.5	540
12	866	7.6	540
12	897	7.7	540
12	928	7.8	540
12	959	7.9	540
12	990	8	540
12	1021	8.1	540
12	1052	8.2	540
12	1083	8.3	540
12	1114	8.4	540
12	1145	8.5	540
12	1176	8.6	540
12	1207	8.7	540
12	1238	8.8	540
12	1269	8.9	540
12	1300	9	540
12	1331	9.1	540
12	1362	9.2	540
12	1393	9.3	540
12	1424	9.4	540
12	1455	9.5	540
12	1486	9.6	540
12	1517	9.7	540
12	1548	9.8	540
12	1579	9.9	540
12	1610	10	540
12	1641	10.1	540
12	1672	10.2	540
12	1703	10.3	540
12	1734	10.4	540
12	1765	10.5	540
12	1796	10.6	540
12	1827	10.7	540
12	1858	10.8	540
12	1889	10.9	540
12	1920	11	540
12	1951	11.1	540
12	1982	11.2	540
12	2013	11.3	540
12	2044	11.4	540
12	2075	11.5	540
12	2106	11.6	540
12	2137	11.7	540
12	2168	11.8	540
12	2199	11.9	540
12	2230	12	540
12	2261	12.1	540
12	2292	12.2	540
12	2323	12.3	540
12	2354	12.4	540
12	2385	12.5	540
12	2416	12.6	540
12	2447	12.7	540
12	2478	12.8	540
12	2509	12.9	540
12	2540	13	540
12	2571	13.1	540
12	2602	13.2	540
12	2633	13.3	540
12	2664	13.4	540
12	2695	13.5	540
12	2726	13.6	540
12	2757	13.7	540
12	2788	13.8	540
12	2819	13.9	540
12	2850	14	540
12	2881	14.1	540
12	2912	14.2	540
12	2943	14.3	540
12	2974	14.4	540
12	3005	14.5	540
12	3036	14.6	540
12	3067	14.7	540
12	3098	14.8	540
12	3129	14.9	540
12	3160	15	540
12	3191	15.1	540
12	3222	15.2	540
12	3253	15.3	540
12	3284	15.4	540
12	3315	15.5	540
12	3346	15.6	540
12	3377	15.7	540
12	3408	15.8	540
12	3439	15.9	540
12	3470	16	540
12	3501	16.1	540
12	3532	16.2	540
12	3563	16.3	540
12	3594	16.4	540
12	3625	16.5	540
12	3656	16.6	540
12	3687	16.7	540
12	3718	16.8	540
12	3749	16.9	540
12	3780	17	540
12	3811	17.1	540
12	3842	17.2	540
12	3873	17.3	540
12	3904	17.4	540
12	3935	17.5	540
12	3966	17.6	540
12	3997	17.7	540
12	4028	17.8	540
12	4059	17.9	540
12	4090	18	540
12	4121	18.1	540
12	4152	18.2	540
12	4183	18.3	540
12	4214	18.4	540
12	4245	18.5	540
12	4276	18.6	540
12	4307	18.7	540
12	4338	18.8	540
12	4369	18.9	540
12	4400	19	540
12	4431	19.1	540
12	4462	19.2	540
12	4493	19.3	540
12	4524	19.4	540
12	4555	19.5	540
12	4586	19.6	540
12	4617	19.7	540
12	4648	19.8	540
12	4679	19.9	540
12	4710	20	540
12	4741	20.1	540
12	4772	20.2	540
12	4803	20.3	540
12	4834	20.4	540
12	4865	20.5	540
12	4896	20.6	540
12	4927	20.7	540
12	4958	20.8	540
12	4989	20.9	540
12	5020	21	540
12	5051	21.1	540
12	5082	21.2	540
12	5113	21.3	540
12	5144	21.4	540
12	5175	21.5	540
12	5206	21.6	540
12	5237	21.7	540
12	5268	21.8	540
12	5299	21.9	540
12	5330	22	540
12	5361	22.1	540
12	5392	22.2	540
12	5423	22.3	540
12	5454	22.4	540
12	5485	22.5	540
12	5516	22.6	540
12	5547	22.7	540
12	5578	22.8	540
12	5609	22.9	540
12	5640	23	540
12	5671	23.1	540
12	5702	23.2	540
12	5733	23.3	540
12	5764	23.4	540
12	5795	23.5	540
12	5826	23.6	540
12	5857	23.7	540
12	5888	23.8	540
12	5919	23.9	540
12	5950	24	540
12	5981	24.1	540
12	6012	24.2	540
12	6043	24.3	540
12	6074	24.4	540
12	6105	24.5	540
12	6136	24.6	540
12	6167	24.7	540
12	6198	24.8	540
12	6229	24.9	540
30	129	5.2	570
30	160	5.3	570
30	191	5.4	570
30	222	5.5	570
30	253	5.6	570
30	284	5.7	570
30	315	5.8	570
30	346	5.9	570
30	377	6	570
30	408	6.1	570
30	439	6.2	570
30	470	6.3	570
30	501	6.4	570
30	532	6.5	570
30	563	6.6	570
30	594	6.7	570
30	625	6.8	570
30	656	6.9	570
30	687	7	570
30	718	7.1	570
30	749	7.2	570
30	780	7.3	570
30	811	7.4	570
30	842	7.5	570
30	873	7.6	570
30	904	7.7	570
30	935	7.8	570
30	966	7.9	570
30	997	8	570
30	1028	8.1	570
30	1059	8.2	570
30	1090	8.3	570
30	1121	8.4	570
30	1152	8.5	570
30	1183	8.6	570
30	1214	8.7	570
30	1245	8.8	570
30	1276	8.9	570
30	1307	9	570
30	1338	9.1	570
30	1369	9.2	570
30	1400	9.3	570
30	1431	9.4	570
30	1462	9.5	570
30	1493	9.6	570
30	1524	9.7	570
30	1555	9.8	570
30	1586	9.9	570
30	1617	10	570
30	1648	10.1	570
30	1679	10.2	570
30	1710	10.3	570
30	1741	10.4	570
30	1772	10.5	570
30	1803	10.6	570
30	1834	10.7	570
30	1865	10.8	570
30	1896	10.9	570
30	1927	11	570
30	1958	11.1	570
30	1989	11.2	570
30	2020	11.3	570
30	2051	11.4	570
30	2082	11.5	570
30	2113	11.6	570
30	2144	11.7	570
30	2175	11.8	570
30	2206	11.9	570
30	2237	12	570
30	2268	12.1	570
30	2299	12.2	570
30	2330	12.3	570
30	2361	12.4	570
30	2392	12.5	570
30	2423	12.6	570
30	2454	12.7	570
30	2485	12.8	570
30	2516	12.9	570
30	2547	13	570
30	2578	13.1	570
30	2609	13.2	570
30	2640	13.3	570
30	2671	13.4	570
30	2702	13.5	570
30	2733	13.6	570
30	2764	13.7	570
30	2795	13.8	570
30	2826	13.9	570
30	2857	14	570
30	2888	14.1	570
30	2919	14.2	570
30	2950	14.3	570
30	2981	14.4	570
30	3012	14.5	570
30	3043	14.6	570
30	3074	14.7	570
30	3105	14.8	570
30	3136	14.9	570
30	3167	15	570
30	3198	15.1	570
30	3229	15.2	570
30	3260	15.3	570
30	3291	15.4	570
30	3322	15.5	570
30	3353	15.6	570
30	3384	15.7	570
30	3415	15.8	570
30	3446	15.9	570
30	3477	16	570
30	3508	16.1	570
30	3539	16.2	570
30	3570	16.3	570
30	3601	16.4	570
30	3632	16.5	570
30	3663	16.6	570
30	3694	16.7	570
30	3725	16.8	570
30	3756	16.9	570
30	3787	17	570
30	3818	17.1	570
30	3849	17.2	570
30	3880	17.3	570
30	3911	17.4	570
30	3942	17.5	570
30	3973	17.6	570
30	4004	17.7	570
30	4035	17.8	570
30	4066	17.9	570
30	4097	18	570
30	4128	18.1	570
30	4159	18.2	570
30	4190	18.3	570
30	4221	18.4	570
30	4252	18.5	570
30	4283	18.6	570
30	4314	18.7	570
30	4345	18.8	570
30	4376	18.9	570
30	4407	19	570
30	4438	19.1	570
30	4469	19.2	570
30	4500	19.3	570
30	4531	19.4	570
30	4562	19.5	570
30	4593	19.6	570
30	4624	19.7	570
30	4655	19.8	570
30	4686	19.9	570
30	4717	20	570
30	4748	20.1	570
30	4779	20.2	570
30	4810	20.3	570
30	4841	20.4	570
30	4872	20.5	570
30	4903	20.6	570
30	4934	20.7	570
30	4965	20.8	570
30	4996	20.9	570
30	5027	21	570
30	5058	21.1	570
30	5089	21.2	570
30	5120	21.3	570
30	5151	21.4	570
30	5182	21.5	570
30	5213	21.6	570
30	5244	21.7	570
30	5275	21.8	570
30	5306	21.9	570
30	5337	22	570
30	5368	22.1	570
30	5399	22.2	570
30	5430	22.3	570
30	5461	22.4	570
30	5492	22.5	570
30	5523	22.6	570
30	5554	22.7	570
30	5585	22.8	570
30	5616	22.9	570
30	5647	23	570
30	5678	23.1	570
30	5709	23.2	570
30	5740	23.3	570
30	5771	23.4	570
30	5802	23.5	570
30	5833	23.6	570
30	5864	23.7	570
30	5895	23.8	570
30	5926	23.9	570
30	5957	24	570
30	5988	24.1	570
30	6019	24.2	570
30	6050	24.3	570
30	6081	24.4	570
30	6112	24.5	570
30	6143	24.6	570
30	6174	24.7	570
30	6205	24.8	570
30	6236	24.9	570
13	125	5.2	542
13	156	5.3	542
13	187	5.4	542
13	218	5.5	542
13	249	5.6	542
13	280	5.7	542
13	311	5.8	542
13	342	5.9	542
13	373	6	542
13	404	6.1	542
13	435	6.2	542
13	466	6.3	542
13	497	6.4	542
13	528	6.5	542
13	559	6.6	542
13	590	6.7	542
13	621	6.8	542
13	652	6.9	542
13	683	7	542
13	714	7.1	542
13	745	7.2	542
13	776	7.3	542
13	807	7.4	542
13	838	7.5	542
13	869	7.6	542
13	900	7.7	542
13	931	7.8	542
13	962	7.9	542
13	993	8	542
13	1024	8.1	542
13	1055	8.2	542
13	1086	8.3	542
13	1117	8.4	542
13	1148	8.5	542
13	1179	8.6	542
13	1210	8.7	542
13	1241	8.8	542
13	1272	8.9	542
13	1303	9	542
13	1334	9.1	542
13	1365	9.2	542
13	1396	9.3	542
13	1427	9.4	542
13	1458	9.5	542
13	1489	9.6	542
13	1520	9.7	542
13	1551	9.8	542
13	1582	9.9	542
13	1613	10	542
13	1644	10.1	542
13	1675	10.2	542
13	1706	10.3	542
13	1737	10.4	542
13	1768	10.5	542
13	1799	10.6	542
13	1830	10.7	542
13	1861	10.8	542
13	1892	10.9	542
13	1923	11	542
13	1954	11.1	542
13	1985	11.2	542
13	2016	11.3	542
13	2047	11.4	542
13	2078	11.5	542
13	2109	11.6	542
13	2140	11.7	542
13	2171	11.8	542
13	2202	11.9	542
13	2233	12	542
13	2264	12.1	542
13	2295	12.2	542
13	2326	12.3	542
13	2357	12.4	542
13	2388	12.5	542
13	2419	12.6	542
13	2450	12.7	542
13	2481	12.8	542
13	2512	12.9	542
13	2543	13	542
13	2574	13.1	542
13	2605	13.2	542
13	2636	13.3	542
13	2667	13.4	542
13	2698	13.5	542
13	2729	13.6	542
13	2760	13.7	542
13	2791	13.8	542
13	2822	13.9	542
13	2853	14	542
13	2884	14.1	542
13	2915	14.2	542
13	2946	14.3	542
13	2977	14.4	542
13	3008	14.5	542
13	3039	14.6	542
13	3070	14.7	542
13	3101	14.8	542
13	3132	14.9	542
13	3163	15	542
13	3194	15.1	542
13	3225	15.2	542
13	3256	15.3	542
13	3287	15.4	542
13	3318	15.5	542
13	3349	15.6	542
13	3380	15.7	542
13	3411	15.8	542
13	3442	15.9	542
13	3473	16	542
13	3504	16.1	542
13	3535	16.2	542
13	3566	16.3	542
13	3597	16.4	542
13	3628	16.5	542
13	3659	16.6	542
13	3690	16.7	542
13	3721	16.8	542
13	3752	16.9	542
13	3783	17	542
13	3814	17.1	542
13	3845	17.2	542
13	3876	17.3	542
13	3907	17.4	542
13	3938	17.5	542
13	3969	17.6	542
13	4000	17.7	542
13	4031	17.8	542
13	4062	17.9	542
13	4093	18	542
13	4124	18.1	542
13	4155	18.2	542
13	4186	18.3	542
13	4217	18.4	542
13	4248	18.5	542
13	4279	18.6	542
13	4310	18.7	542
13	4341	18.8	542
13	4372	18.9	542
13	4403	19	542
13	4434	19.1	542
13	4465	19.2	542
13	4496	19.3	542
13	4527	19.4	542
13	4558	19.5	542
13	4589	19.6	542
13	4620	19.7	542
13	4651	19.8	542
13	4682	19.9	542
13	4713	20	542
13	4744	20.1	542
13	4775	20.2	542
13	4806	20.3	542
13	4837	20.4	542
13	4868	20.5	542
13	4899	20.6	542
13	4930	20.7	542
13	4961	20.8	542
13	4992	20.9	542
13	5023	21	542
13	5054	21.1	542
13	5085	21.2	542
13	5116	21.3	542
13	5147	21.4	542
13	5178	21.5	542
13	5209	21.6	542
13	5240	21.7	542
13	5271	21.8	542
13	5302	21.9	542
13	5333	22	542
13	5364	22.1	542
13	5395	22.2	542
13	5426	22.3	542
13	5457	22.4	542
13	5488	22.5	542
13	5519	22.6	542
13	5550	22.7	542
13	5581	22.8	542
13	5612	22.9	542
13	5643	23	542
13	5674	23.1	542
13	5705	23.2	542
13	5736	23.3	542
13	5767	23.4	542
13	5798	23.5	542
13	5829	23.6	542
13	5860	23.7	542
13	5891	23.8	542
13	5922	23.9	542
13	5953	24	542
13	5984	24.1	542
13	6015	24.2	542
13	6046	24.3	542
13	6077	24.4	542
13	6108	24.5	542
13	6139	24.6	542
13	6170	24.7	542
13	6201	24.8	542
13	6232	24.9	542
35	103	5.100424	570
35	134	5.200424	570
35	165	5.300424	570
35	196	5.400424	570
35	227	5.500424	570
35	258	5.600424	570
35	289	5.700424	570
35	320	5.800424	570
35	351	5.900424	570
35	382	6.000424	570
35	413	6.100424	570
35	444	6.200424	570
35	475	6.300424	570
35	506	6.400424	570
35	537	6.500424	570
35	568	6.600424	570
35	599	6.700424	570
35	630	6.800424	570
35	661	6.900424	570
35	692	7.000424	570
35	723	7.100424	570
35	754	7.200424	570
35	785	7.300424	570
35	816	7.400424	570
35	847	7.500424	570
35	878	7.600424	570
35	909	7.700424	570
35	940	7.800424	570
35	971	7.900424	570
35	1002	8.000424	570
35	1033	8.100424	570
35	1064	8.200424	570
35	1095	8.300424	570
35	1126	8.400424	570
35	1157	8.500424	570
35	1188	8.600424	570
35	1219	8.700424	570
35	1250	8.800424	570
35	1281	8.900424	570
35	1312	9.000424	570
35	1343	9.100424	570
35	1374	9.200424	570
35	1405	9.300424	570
35	1436	9.400424	570
35	1467	9.500424	570
35	1498	9.600424	570
35	1529	9.700424	570
35	1560	9.800424	570
35	1591	9.900424	570
35	1622	10.000424	570
35	1653	10.100424	570
35	1684	10.200424	570
35	1715	10.300424	570
35	1746	10.400424	570
35	1777	10.500424	570
35	1808	10.600424	570
35	1839	10.700424	570
35	1870	10.800424	570
35	1901	10.900424	570
35	1932	11.000424	570
35	1963	11.100424	570
35	1994	11.200424	570
35	2025	11.300424	570
35	2056	11.400424	570
35	2087	11.500424	570
35	2118	11.600424	570
35	2149	11.700424	570
35	2180	11.800424	570
35	2211	11.900424	570
35	2242	12.000424	570
35	2273	12.100424	570
35	2304	12.200424	570
35	2335	12.300424	570
35	2366	12.400424	570
35	2397	12.500424	570
35	2428	12.600424	570
35	2459	12.700424	570
35	2490	12.800424	570
35	2521	12.900424	570
35	2552	13.000424	570
35	2583	13.100424	570
35	2614	13.200424	570
35	2645	13.300424	570
35	2676	13.400424	570
35	2707	13.500424	570
35	2738	13.600424	570
35	2769	13.700424	570
35	2800	13.800424	570
35	2831	13.900424	570
35	2862	14.000424	570
35	2893	14.100424	570
35	2924	14.200424	570
35	2955	14.300424	570
35	2986	14.400424	570
35	3017	14.500424	570
35	3048	14.600424	570
35	3079	14.700424	570
35	3110	14.800424	570
35	3141	14.900424	570
35	3172	15.000424	570
35	3203	15.100424	570
35	3234	15.200424	570
35	3265	15.300424	570
35	3296	15.400424	570
35	3327	15.500424	570
35	3358	15.600424	570
35	3389	15.700424	570
35	3420	15.800424	570
35	3451	15.900424	570
35	3482	16.000424	570
35	3513	16.100424	570
35	3544	16.200424	570
35	3575	16.300424	570
35	3606	16.400424	570
35	3637	16.500424	570
35	3668	16.600424	570
35	3699	16.700424	570
35	3730	16.800424	570
35	3761	16.900424	570
35	3792	17.000424	570
35	3823	17.100424	570
35	3854	17.200424	570
35	3885	17.300424	570
35	3916	17.400424	570
35	3947	17.500424	570
35	3978	17.600424	570
35	4009	17.700424	570
35	4040	17.800424	570
35	4071	17.900424	570
35	4102	18.000424	570
35	4133	18.100424	570
35	4164	18.200424	570
35	4195	18.300424	570
35	4226	18.400424	570
35	4257	18.500424	570
35	4288	18.600424	570
35	4319	18.700424	570
35	4350	18.800424	570
35	4381	18.900424	570
35	4412	19.000424	570
35	4443	19.100424	570
35	4474	19.200424	570
35	4505	19.300424	570
35	4536	19.400424	570
35	4567	19.500424	570
35	4598	19.600424	570
35	4629	19.700424	570
35	4660	19.800424	570
35	4691	19.900424	570
35	4722	20.000424	570
35	4753	20.100424	570
35	4784	20.200424	570
35	4815	20.300424	570
35	4846	20.400424	570
35	4877	20.500424	570
35	4908	20.600424	570
35	4939	20.700424	570
35	4970	20.800424	570
35	5001	20.900424	570
35	5032	21.000424	570
35	5063	21.100424	570
35	5094	21.200424	570
35	5125	21.300424	570
35	5156	21.400424	570
35	5187	21.500424	570
35	5218	21.600424	570
35	5249	21.700424	570
35	5280	21.800424	570
35	5311	21.900424	570
35	5342	22.000424	570
35	5373	22.100424	570
35	5404	22.200424	570
35	5435	22.300424	570
35	5466	22.400424	570
35	5497	22.500424	570
35	5528	22.600424	570
35	5559	22.700424	570
35	5590	22.800424	570
35	5621	22.900424	570
35	5652	23.000424	570
35	5683	23.100424	570
35	5714	23.200424	570
35	5745	23.300424	570
35	5776	23.400424	570
35	5807	23.500424	570
35	5838	23.600424	570
35	5869	23.700424	570
35	5900	23.800424	570
35	5931	23.900424	570
35	5962	24.000424	570
35	5993	24.100424	570
35	6024	24.200424	570
35	6055	24.300424	570
35	6086	24.400424	570
35	6117	24.500424	570
35	6148	24.600424	570
35	6179	24.700424	570
35	6210	24.800424	570
35	6241	24.900424	570
34	103	5.100424	570
34	134	5.200424	570
34	165	5.300424	570
34	196	5.400424	570
34	227	5.500424	570
34	258	5.600424	570
34	289	5.700424	570
34	320	5.800424	570
34	351	5.900424	570
34	382	6.000424	570
34	413	6.100424	570
34	444	6.200424	570
34	475	6.300424	570
34	506	6.400424	570
34	537	6.500424	570
34	568	6.600424	570
34	599	6.700424	570
34	630	6.800424	570
34	661	6.900424	570
34	692	7.000424	570
34	723	7.100424	570
34	754	7.200424	570
34	785	7.300424	570
34	816	7.400424	570
34	847	7.500424	570
34	878	7.600424	570
34	909	7.700424	570
34	940	7.800424	570
34	971	7.900424	570
34	1002	8.000424	570
34	1033	8.100424	570
34	1064	8.200424	570
34	1095	8.300424	570
34	1126	8.400424	570
34	1157	8.500424	570
34	1188	8.600424	570
34	1219	8.700424	570
34	1250	8.800424	570
34	1281	8.900424	570
34	1312	9.000424	570
34	1343	9.100424	570
34	1374	9.200424	570
34	1405	9.300424	570
34	1436	9.400424	570
34	1467	9.500424	570
34	1498	9.600424	570
34	1529	9.700424	570
34	1560	9.800424	570
34	1591	9.900424	570
34	1622	10.000424	570
34	1653	10.100424	570
34	1684	10.200424	570
34	1715	10.300424	570
34	1746	10.400424	570
34	1777	10.500424	570
34	1808	10.600424	570
34	1839	10.700424	570
34	1870	10.800424	570
34	1901	10.900424	570
34	1932	11.000424	570
34	1963	11.100424	570
34	1994	11.200424	570
34	2025	11.300424	570
34	2056	11.400424	570
34	2087	11.500424	570
34	2118	11.600424	570
34	2149	11.700424	570
34	2180	11.800424	570
34	2211	11.900424	570
34	2242	12.000424	570
34	2273	12.100424	570
34	2304	12.200424	570
34	2335	12.300424	570
34	2366	12.400424	570
34	2397	12.500424	570
34	2428	12.600424	570
34	2459	12.700424	570
34	2490	12.800424	570
34	2521	12.900424	570
34	2552	13.000424	570
34	2583	13.100424	570
34	2614	13.200424	570
34	2645	13.300424	570
34	2676	13.400424	570
34	2707	13.500424	570
34	2738	13.600424	570
34	2769	13.700424	570
34	2800	13.800424	570
34	2831	13.900424	570
34	2862	14.000424	570
34	2893	14.100424	570
34	2924	14.200424	570
34	2955	14.300424	570
34	2986	14.400424	570
34	3017	14.500424	570
34	3048	14.600424	570
34	3079	14.700424	570
34	3110	14.800424	570
34	3141	14.900424	570
34	3172	15.000424	570
34	3203	15.100424	570
34	3234	15.200424	570
34	3265	15.300424	570
34	3296	15.400424	570
34	3327	15.500424	570
34	3358	15.600424	570
34	3389	15.700424	570
34	3420	15.800424	570
34	3451	15.900424	570
34	3482	16.000424	570
34	3513	16.100424	570
34	3544	16.200424	570
34	3575	16.300424	570
34	3606	16.400424	570
34	3637	16.500424	570
34	3668	16.600424	570
34	3699	16.700424	570
34	3730	16.800424	570
34	3761	16.900424	570
34	3792	17.000424	570
34	3823	17.100424	570
34	3854	17.200424	570
34	3885	17.300424	570
34	3916	17.400424	570
34	3947	17.500424	570
34	3978	17.600424	570
34	4009	17.700424	570
34	4040	17.800424	570
34	4071	17.900424	570
34	4102	18.000424	570
34	4133	18.100424	570
34	4164	18.200424	570
34	4195	18.300424	570
34	4226	18.400424	570
34	4257	18.500424	570
34	4288	18.600424	570
34	4319	18.700424	570
34	4350	18.800424	570
34	4381	18.900424	570
34	4412	19.000424	570
34	4443	19.100424	570
34	4474	19.200424	570
34	4505	19.300424	570
34	4536	19.400424	570
34	4567	19.500424	570
34	4598	19.600424	570
34	4629	19.700424	570
34	4660	19.800424	570
34	4691	19.900424	570
34	4722	20.000424	570
34	4753	20.100424	570
34	4784	20.200424	570
34	4815	20.300424	570
34	4846	20.400424	570
34	4877	20.500424	570
34	4908	20.600424	570
34	4939	20.700424	570
34	4970	20.800424	570
34	5001	20.900424	570
34	5032	21.000424	570
34	5063	21.100424	570
34	5094	21.200424	570
34	5125	21.300424	570
34	5156	21.400424	570
34	5187	21.500424	570
34	5218	21.600424	570
34	5249	21.700424	570
34	5280	21.800424	570
34	5311	21.900424	570
34	5342	22.000424	570
34	5373	22.100424	570
34	5404	22.200424	570
34	5435	22.300424	570
34	5466	22.400424	570
34	5497	22.500424	570
34	5528	22.600424	570
34	5559	22.700424	570
34	5590	22.800424	570
34	5621	22.900424	570
34	5652	23.000424	570
34	5683	23.100424	570
34	5714	23.200424	570
34	5745	23.300424	570
34	5776	23.400424	570
34	5807	23.500424	570
34	5838	23.600424	570
34	5869	23.700424	570
34	5900	23.800424	570
34	5931	23.900424	570
34	5962	24.000424	570
34	5993	24.100424	570
34	6024	24.200424	570
34	6055	24.300424	570
34	6086	24.400424	570
34	6117	24.500424	570
34	6148	24.600424	570
34	6179	24.700424	570
34	6210	24.800424	570
34	6241	24.900424	570
33	103	5.100424	570
33	134	5.200424	570
33	165	5.300424	570
33	196	5.400424	570
33	227	5.500424	570
33	258	5.600424	570
33	289	5.700424	570
33	320	5.800424	570
33	351	5.900424	570
33	382	6.000424	570
33	413	6.100424	570
33	444	6.200424	570
33	475	6.300424	570
33	506	6.400424	570
33	537	6.500424	570
33	568	6.600424	570
33	599	6.700424	570
33	630	6.800424	570
33	661	6.900424	570
33	692	7.000424	570
33	723	7.100424	570
33	754	7.200424	570
33	785	7.300424	570
33	816	7.400424	570
33	847	7.500424	570
33	878	7.600424	570
33	909	7.700424	570
33	940	7.800424	570
33	971	7.900424	570
33	1002	8.000424	570
33	1033	8.100424	570
33	1064	8.200424	570
33	1095	8.300424	570
33	1126	8.400424	570
33	1157	8.500424	570
33	1188	8.600424	570
33	1219	8.700424	570
33	1250	8.800424	570
33	1281	8.900424	570
33	1312	9.000424	570
33	1343	9.100424	570
33	1374	9.200424	570
33	1405	9.300424	570
33	1436	9.400424	570
33	1467	9.500424	570
33	1498	9.600424	570
33	1529	9.700424	570
33	1560	9.800424	570
33	1591	9.900424	570
33	1622	10.000424	570
33	1653	10.100424	570
33	1684	10.200424	570
33	1715	10.300424	570
33	1746	10.400424	570
33	1777	10.500424	570
33	1808	10.600424	570
33	1839	10.700424	570
33	1870	10.800424	570
33	1901	10.900424	570
33	1932	11.000424	570
33	1963	11.100424	570
33	1994	11.200424	570
33	2025	11.300424	570
33	2056	11.400424	570
33	2087	11.500424	570
33	2118	11.600424	570
33	2149	11.700424	570
33	2180	11.800424	570
33	2211	11.900424	570
33	2242	12.000424	570
33	2273	12.100424	570
33	2304	12.200424	570
33	2335	12.300424	570
33	2366	12.400424	570
33	2397	12.500424	570
33	2428	12.600424	570
33	2459	12.700424	570
33	2490	12.800424	570
33	2521	12.900424	570
33	2552	13.000424	570
33	2583	13.100424	570
33	2614	13.200424	570
33	2645	13.300424	570
33	2676	13.400424	570
33	2707	13.500424	570
33	2738	13.600424	570
33	2769	13.700424	570
33	2800	13.800424	570
33	2831	13.900424	570
33	2862	14.000424	570
33	2893	14.100424	570
33	2924	14.200424	570
33	2955	14.300424	570
33	2986	14.400424	570
33	3017	14.500424	570
33	3048	14.600424	570
33	3079	14.700424	570
33	3110	14.800424	570
33	3141	14.900424	570
33	3172	15.000424	570
33	3203	15.100424	570
33	3234	15.200424	570
33	3265	15.300424	570
33	3296	15.400424	570
33	3327	15.500424	570
33	3358	15.600424	570
33	3389	15.700424	570
33	3420	15.800424	570
33	3451	15.900424	570
33	3482	16.000424	570
33	3513	16.100424	570
33	3544	16.200424	570
33	3575	16.300424	570
33	3606	16.400424	570
33	3637	16.500424	570
33	3668	16.600424	570
33	3699	16.700424	570
33	3730	16.800424	570
33	3761	16.900424	570
33	3792	17.000424	570
33	3823	17.100424	570
33	3854	17.200424	570
33	3885	17.300424	570
33	3916	17.400424	570
33	3947	17.500424	570
33	3978	17.600424	570
33	4009	17.700424	570
33	4040	17.800424	570
33	4071	17.900424	570
33	4102	18.000424	570
33	4133	18.100424	570
33	4164	18.200424	570
33	4195	18.300424	570
33	4226	18.400424	570
33	4257	18.500424	570
33	4288	18.600424	570
33	4319	18.700424	570
33	4350	18.800424	570
33	4381	18.900424	570
33	4412	19.000424	570
33	4443	19.100424	570
33	4474	19.200424	570
33	4505	19.300424	570
33	4536	19.400424	570
33	4567	19.500424	570
33	4598	19.600424	570
33	4629	19.700424	570
33	4660	19.800424	570
33	4691	19.900424	570
33	4722	20.000424	570
33	4753	20.100424	570
33	4784	20.200424	570
33	4815	20.300424	570
33	4846	20.400424	570
33	4877	20.500424	570
33	4908	20.600424	570
33	4939	20.700424	570
33	4970	20.800424	570
33	5001	20.900424	570
33	5032	21.000424	570
33	5063	21.100424	570
33	5094	21.200424	570
33	5125	21.300424	570
33	5156	21.400424	570
33	5187	21.500424	570
33	5218	21.600424	570
33	5249	21.700424	570
33	5280	21.800424	570
33	5311	21.900424	570
33	5342	22.000424	570
33	5373	22.100424	570
33	5404	22.200424	570
33	5435	22.300424	570
33	5466	22.400424	570
33	5497	22.500424	570
33	5528	22.600424	570
33	5559	22.700424	570
33	5590	22.800424	570
33	5621	22.900424	570
33	5652	23.000424	570
33	5683	23.100424	570
33	5714	23.200424	570
33	5745	23.300424	570
33	5776	23.400424	570
33	5807	23.500424	570
33	5838	23.600424	570
33	5869	23.700424	570
33	5900	23.800424	570
33	5931	23.900424	570
33	5962	24.000424	570
33	5993	24.100424	570
33	6024	24.200424	570
33	6055	24.300424	570
33	6086	24.400424	570
33	6117	24.500424	570
33	6148	24.600424	570
33	6179	24.700424	570
33	6210	24.800424	570
33	6241	24.900424	570
31	103	5.100424	0
31	129	5.2	1
31	134	5.200424	0
31	160	5.3	1
31	165	5.300424	0
31	191	5.4	1
31	196	5.400424	0
31	222	5.5	1
31	227	5.500424	0
31	253	5.6	1
31	258	5.600424	0
31	284	5.7	1
31	289	5.700424	0
31	315	5.8	1
31	320	5.800424	0
31	346	5.9	1
31	351	5.900424	0
31	377	6	1
31	382	6.000424	0
31	408	6.1	1
31	413	6.100424	0
31	439	6.2	1
31	444	6.200424	0
31	470	6.3	1
31	475	6.300424	0
31	501	6.4	1
31	506	6.400424	0
31	532	6.5	1
31	537	6.500424	0
31	563	6.6	1
31	568	6.600424	0
31	594	6.7	1
31	599	6.700424	0
31	625	6.8	1
31	630	6.800424	0
31	656	6.9	1
31	661	6.900424	0
31	687	7	1
31	692	7.000424	0
31	718	7.1	1
31	723	7.100424	0
31	749	7.2	1
31	754	7.200424	0
31	780	7.3	1
31	785	7.300424	0
31	811	7.4	1
31	816	7.400424	0
31	842	7.5	1
31	847	7.500424	0
31	873	7.6	1
31	878	7.600424	0
31	904	7.7	1
31	909	7.700424	0
31	935	7.8	1
31	940	7.800424	0
31	966	7.9	1
31	971	7.900424	0
31	997	8	1
31	1002	8.000424	0
31	1028	8.1	1
31	1033	8.100424	0
31	1059	8.2	1
31	1064	8.200424	0
31	1090	8.3	1
31	1095	8.300424	0
31	1121	8.4	1
31	1126	8.400424	0
31	1152	8.5	1
31	1157	8.500424	0
31	1183	8.6	1
31	1188	8.600424	0
31	1214	8.7	1
31	1219	8.700424	0
31	1245	8.8	1
31	1250	8.800424	0
31	1276	8.9	1
31	1281	8.900424	0
31	1307	9	1
31	1312	9.000424	0
31	1338	9.1	1
31	1343	9.100424	0
31	1369	9.2	1
31	1374	9.200424	0
31	1400	9.3	1
31	1405	9.300424	0
31	1431	9.4	1
31	1436	9.400424	0
31	1462	9.5	1
31	1467	9.500424	0
31	1493	9.6	1
31	1498	9.600424	0
31	1524	9.7	1
31	1529	9.700424	0
31	1555	9.8	1
31	1560	9.800424	0
31	1586	9.9	1
31	1591	9.900424	0
31	1617	10	1
31	1622	10.000424	0
31	1648	10.1	1
31	1653	10.100424	0
31	1679	10.2	1
31	1684	10.200424	0
31	1710	10.3	1
31	1715	10.300424	0
31	1741	10.4	1
31	1746	10.400424	0
31	1772	10.5	1
31	1777	10.500424	0
31	1803	10.6	1
31	1808	10.600424	0
31	1834	10.7	1
31	1839	10.700424	0
31	1865	10.8	1
31	1870	10.800424	0
31	1896	10.9	1
31	1901	10.900424	0
31	1927	11	1
31	1932	11.000424	0
31	1958	11.1	1
31	1963	11.100424	0
31	1989	11.2	1
31	1994	11.200424	0
31	2020	11.3	1
31	2025	11.300424	0
31	2051	11.4	1
31	2056	11.400424	0
31	2082	11.5	1
31	2087	11.500424	0
31	2113	11.6	1
31	2118	11.600424	0
31	2144	11.7	1
31	2149	11.700424	0
31	2175	11.8	1
31	2180	11.800424	0
31	2206	11.9	1
31	2211	11.900424	0
31	2237	12	1
31	2242	12.000424	0
31	2268	12.1	1
31	2273	12.100424	0
31	2299	12.2	1
31	2304	12.200424	0
31	2330	12.3	1
31	2335	12.300424	0
31	2361	12.4	1
31	2366	12.400424	0
31	2392	12.5	1
31	2397	12.500424	0
31	2423	12.6	1
31	2428	12.600424	0
31	2454	12.7	1
31	2459	12.700424	0
31	2485	12.8	1
31	2490	12.800424	0
31	2516	12.9	1
31	2521	12.900424	0
31	2547	13	1
31	2552	13.000424	0
31	2578	13.1	1
31	2583	13.100424	0
31	2609	13.2	1
31	2614	13.200424	0
31	2640	13.3	1
31	2645	13.300424	0
31	2671	13.4	1
31	2676	13.400424	0
31	2702	13.5	1
31	2707	13.500424	0
31	2733	13.6	1
31	2738	13.600424	0
31	2764	13.7	1
31	2769	13.700424	0
31	2795	13.8	1
31	2800	13.800424	0
31	2826	13.9	1
31	2831	13.900424	0
31	2857	14	1
31	2862	14.000424	0
31	2888	14.1	1
31	2893	14.100424	0
31	2919	14.2	1
31	2924	14.200424	0
31	2950	14.3	1
31	2955	14.300424	0
31	2981	14.4	1
31	2986	14.400424	0
31	3012	14.5	1
31	3017	14.500424	0
31	3043	14.6	1
31	3048	14.600424	0
31	3074	14.7	1
31	3079	14.700424	0
31	3105	14.8	1
31	3110	14.800424	0
31	3136	14.9	1
31	3141	14.900424	0
31	3167	15	1
31	3172	15.000424	0
31	3198	15.1	1
31	3203	15.100424	0
31	3229	15.2	1
31	3234	15.200424	0
31	3260	15.3	1
31	3265	15.300424	0
31	3291	15.4	1
31	3296	15.400424	0
31	3322	15.5	1
31	3327	15.500424	0
31	3353	15.6	1
31	3358	15.600424	0
31	3384	15.7	1
31	3389	15.700424	0
31	3415	15.8	1
31	3420	15.800424	0
31	3446	15.9	1
31	3451	15.900424	0
31	3477	16	1
31	3482	16.000424	0
31	3508	16.1	1
31	3513	16.100424	0
31	3539	16.2	1
31	3544	16.200424	0
31	3570	16.3	1
31	3575	16.300424	0
31	3601	16.4	1
31	3606	16.400424	0
31	3632	16.5	1
31	3637	16.500424	0
31	3663	16.6	1
31	3668	16.600424	0
31	3694	16.7	1
31	3699	16.700424	0
31	3725	16.8	1
31	3730	16.800424	0
31	3756	16.9	1
31	3761	16.900424	0
31	3787	17	1
31	3792	17.000424	0
31	3818	17.1	1
31	3823	17.100424	0
31	3849	17.2	1
31	3854	17.200424	0
31	3880	17.3	1
31	3885	17.300424	0
31	3911	17.4	1
31	3916	17.400424	0
31	3942	17.5	1
31	3947	17.500424	0
31	3973	17.6	1
31	3978	17.600424	0
31	4004	17.7	1
31	4009	17.700424	0
31	4035	17.8	1
31	4040	17.800424	0
31	4066	17.9	1
31	4071	17.900424	0
31	4097	18	1
31	4102	18.000424	0
31	4128	18.1	1
31	4133	18.100424	0
31	4159	18.2	1
31	4164	18.200424	0
31	4190	18.3	1
31	4195	18.300424	0
31	4221	18.4	1
31	4226	18.400424	0
31	4252	18.5	1
31	4257	18.500424	0
31	4283	18.6	1
31	4288	18.600424	0
31	4314	18.7	1
31	4319	18.700424	0
31	4345	18.8	1
31	4350	18.800424	0
31	4376	18.9	1
31	4381	18.900424	0
31	4407	19	1
31	4412	19.000424	0
31	4438	19.1	1
31	4443	19.100424	0
31	4469	19.2	1
31	4474	19.200424	0
31	4500	19.3	1
31	4505	19.300424	0
31	4531	19.4	1
31	4536	19.400424	0
31	4562	19.5	1
31	4567	19.500424	0
31	4593	19.6	1
31	4598	19.600424	0
31	4624	19.7	1
31	4629	19.700424	0
31	4655	19.8	1
31	4660	19.800424	0
31	4686	19.9	1
31	4691	19.900424	0
31	4717	20	1
31	4722	20.000424	0
31	4748	20.1	1
31	4753	20.100424	0
31	4779	20.2	1
31	4784	20.200424	0
31	4810	20.3	1
31	4815	20.300424	0
31	4841	20.4	1
31	4846	20.400424	0
31	4872	20.5	1
31	4877	20.500424	0
31	4903	20.6	1
31	4908	20.600424	0
31	4934	20.7	1
31	4939	20.700424	0
31	4965	20.8	1
31	4970	20.800424	0
31	4996	20.9	1
31	5001	20.900424	0
31	5027	21	1
31	5032	21.000424	0
31	5058	21.1	1
31	5063	21.100424	0
31	5089	21.2	1
31	5094	21.200424	0
31	5120	21.3	1
31	5125	21.300424	0
31	5151	21.4	1
31	5156	21.400424	0
31	5182	21.5	1
31	5187	21.500424	0
31	5213	21.6	1
31	5218	21.600424	0
31	5244	21.7	1
31	5249	21.700424	0
31	5275	21.8	1
31	5280	21.800424	0
31	5306	21.9	1
31	5311	21.900424	0
31	5337	22	1
31	5342	22.000424	0
31	5368	22.1	1
31	5373	22.100424	0
31	5399	22.2	1
31	5404	22.200424	0
31	5430	22.3	1
31	5435	22.300424	0
31	5461	22.4	1
31	5466	22.400424	0
31	5492	22.5	1
31	5497	22.500424	0
31	5523	22.6	1
31	5528	22.600424	0
31	5554	22.7	1
31	5559	22.700424	0
31	5585	22.8	1
31	5590	22.800424	0
31	5616	22.9	1
31	5621	22.900424	0
31	5647	23	1
31	5652	23.000424	0
31	5678	23.1	1
31	5683	23.100424	0
31	5709	23.2	1
31	5714	23.200424	0
31	5740	23.3	1
31	5745	23.300424	0
31	5771	23.4	1
31	5776	23.400424	0
31	5802	23.5	1
31	5807	23.500424	0
31	5833	23.6	1
31	5838	23.600424	0
31	5864	23.7	1
31	5869	23.700424	0
31	5895	23.8	1
31	5900	23.800424	0
31	5926	23.9	1
31	5931	23.900424	0
31	5957	24	1
31	5962	24.000424	0
31	5988	24.1	1
31	5993	24.100424	0
31	6019	24.2	1
31	6024	24.200424	0
31	6050	24.3	1
31	6055	24.300424	0
31	6081	24.4	1
31	6086	24.400424	0
31	6112	24.5	1
31	6117	24.500424	0
31	6143	24.6	1
31	6148	24.600424	0
31	6174	24.7	1
31	6179	24.700424	0
31	6205	24.8	1
31	6210	24.800424	0
31	6236	24.9	1
31	6241	24.900424	0
29	129	5.2	12000000
29	160	5.3	12000000
29	191	5.4	12000000
29	222	5.5	12000000
29	253	5.6	12000000
29	284	5.7	12000000
29	315	5.8	12000000
29	346	5.9	12000000
29	377	6	12000000
29	408	6.1	12000000
29	439	6.2	12000000
29	470	6.3	12000000
29	501	6.4	12000000
29	532	6.5	12000000
29	563	6.6	12000000
29	594	6.7	12000000
29	625	6.8	12000000
29	656	6.9	12000000
29	687	7	12000000
29	718	7.1	12000000
29	749	7.2	12000000
29	780	7.3	12000000
29	811	7.4	12000000
29	842	7.5	12000000
29	873	7.6	12000000
29	904	7.7	12000000
29	935	7.8	12000000
29	966	7.9	12000000
29	997	8	12000000
29	1028	8.1	12000000
29	1059	8.2	12000000
29	1090	8.3	12000000
29	1121	8.4	12000000
29	1152	8.5	12000000
29	1183	8.6	12000000
29	1214	8.7	12000000
29	1245	8.8	12000000
29	1276	8.9	12000000
29	1307	9	12000000
29	1338	9.1	12000000
29	1369	9.2	12000000
29	1400	9.3	12000000
29	1431	9.4	12000000
29	1462	9.5	12000000
29	1493	9.6	12000000
29	1524	9.7	12000000
29	1555	9.8	12000000
29	1586	9.9	12000000
29	1617	10	12000000
29	1648	10.1	12000000
29	1679	10.2	12000000
29	1710	10.3	12000000
29	1741	10.4	12000000
29	1772	10.5	12000000
29	1803	10.6	12000000
29	1834	10.7	12000000
29	1865	10.8	12000000
29	1896	10.9	12000000
29	1927	11	12000000
29	1958	11.1	12000000
29	1989	11.2	12000000
29	2020	11.3	12000000
29	2051	11.4	12000000
29	2082	11.5	12000000
29	2113	11.6	12000000
29	2144	11.7	12000000
29	2175	11.8	12000000
29	2206	11.9	12000000
29	2237	12	12000000
29	2268	12.1	12000000
29	2299	12.2	12000000
29	2330	12.3	12000000
29	2361	12.4	12000000
29	2392	12.5	12000000
29	2423	12.6	12000000
29	2454	12.7	12000000
29	2485	12.8	12000000
29	2516	12.9	12000000
29	2547	13	12000000
29	2578	13.1	12000000
29	2609	13.2	12000000
29	2640	13.3	12000000
29	2671	13.4	12000000
29	2702	13.5	12000000
29	2733	13.6	12000000
29	2764	13.7	12000000
29	2795	13.8	12000000
29	2826	13.9	12000000
29	2857	14	12000000
29	2888	14.1	12000000
29	2919	14.2	12000000
29	2950	14.3	12000000
29	2981	14.4	12000000
29	3012	14.5	12000000
29	3043	14.6	12000000
29	3074	14.7	12000000
29	3105	14.8	12000000
29	3136	14.9	12000000
29	3167	15	12000000
29	3198	15.1	12000000
29	3229	15.2	12000000
29	3260	15.3	12000000
29	3291	15.4	12000000
29	3322	15.5	12000000
29	3353	15.6	12000000
29	3384	15.7	12000000
29	3415	15.8	12000000
29	3446	15.9	12000000
29	3477	16	12000000
29	3508	16.1	12000000
29	3539	16.2	12000000
29	3570	16.3	12000000
29	3601	16.4	12000000
29	3632	16.5	12000000
29	3663	16.6	12000000
29	3694	16.7	12000000
29	3725	16.8	12000000
29	3756	16.9	12000000
29	3787	17	12000000
29	3818	17.1	12000000
29	3849	17.2	12000000
29	3880	17.3	12000000
29	3911	17.4	12000000
29	3942	17.5	12000000
29	3973	17.6	12000000
29	4004	17.7	12000000
29	4035	17.8	12000000
29	4066	17.9	12000000
29	4097	18	12000000
29	4128	18.1	12000000
29	4159	18.2	12000000
29	4190	18.3	12000000
29	4221	18.4	12000000
29	4252	18.5	12000000
29	4283	18.6	12000000
29	4314	18.7	12000000
29	4345	18.8	12000000
29	4376	18.9	12000000
29	4407	19	12000000
29	4438	19.1	12000000
29	4469	19.2	12000000
29	4500	19.3	12000000
29	4531	19.4	12000000
29	4562	19.5	12000000
29	4593	19.6	12000000
29	4624	19.7	12000000
29	4655	19.8	12000000
29	4686	19.9	12000000
29	4717	20	12000000
29	4748	20.1	12000000
29	4779	20.2	12000000
29	4810	20.3	12000000
29	4841	20.4	12000000
29	4872	20.5	12000000
29	4903	20.6	12000000
29	4934	20.7	12000000
29	4965	20.8	12000000
29	4996	20.9	12000000
29	5027	21	12000000
29	5058	21.1	12000000
29	5089	21.2	12000000
29	5120	21.3	12000000
29	5151	21.4	12000000
29	5182	21.5	12000000
29	5213	21.6	12000000
29	5244	21.7	12000000
29	5275	21.8	12000000
29	5306	21.9	12000000
29	5337	22	12000000
29	5368	22.1	12000000
29	5399	22.2	12000000
29	5430	22.3	12000000
29	5461	22.4	12000000
29	5492	22.5	12000000
29	5523	22.6	12000000
29	5554	22.7	12000000
29	5585	22.8	12000000
29	5616	22.9	12000000
29	5647	23	12000000
29	5678	23.1	12000000
29	5709	23.2	12000000
29	5740	23.3	12000000
29	5771	23.4	12000000
29	5802	23.5	12000000
29	5833	23.6	12000000
29	5864	23.7	12000000
29	5895	23.8	12000000
29	5926	23.9	12000000
29	5957	24	12000000
29	5988	24.1	12000000
29	6019	24.2	12000000
29	6050	24.3	12000000
29	6081	24.4	12000000
29	6112	24.5	12000000
29	6143	24.6	12000000
29	6174	24.7	12000000
29	6205	24.8	12000000
29	6236	24.9	12000000
27	129	5.2	0
27	160	5.3	0
27	191	5.4	0
27	222	5.5	0
27	253	5.6	0
27	284	5.7	0
27	315	5.8	0
27	346	5.9	0
27	377	6	0
27	408	6.1	0
27	439	6.2	0
27	470	6.3	0
27	501	6.4	0
27	532	6.5	0
27	563	6.6	0
27	594	6.7	0
27	625	6.8	0
27	656	6.9	0
27	687	7	0
27	718	7.1	0
27	749	7.2	0
27	780	7.3	0
27	811	7.4	0
27	842	7.5	0
27	873	7.6	0
27	904	7.7	0
27	935	7.8	0
27	966	7.9	0
27	997	8	0
27	1028	8.1	0
27	1059	8.2	0
27	1090	8.3	0
27	1121	8.4	0
27	1152	8.5	0
27	1183	8.6	0
27	1214	8.7	0
27	1245	8.8	0
27	1276	8.9	0
27	1307	9	0
27	1338	9.1	0
27	1369	9.2	0
27	1400	9.3	0
27	1431	9.4	0
27	1462	9.5	0
27	1493	9.6	0
27	1524	9.7	0
27	1555	9.8	0
27	1586	9.9	0
27	1617	10	0
27	1648	10.1	0
27	1679	10.2	0
27	1710	10.3	0
27	1741	10.4	0
27	1772	10.5	0
27	1803	10.6	0
27	1834	10.7	0
27	1865	10.8	0
27	1896	10.9	0
27	1927	11	0
27	1958	11.1	0
27	1989	11.2	0
27	2020	11.3	0
27	2051	11.4	0
27	2082	11.5	0
27	2113	11.6	0
27	2144	11.7	0
27	2175	11.8	0
27	2206	11.9	0
27	2237	12	0
27	2268	12.1	0
27	2299	12.2	0
27	2330	12.3	0
27	2361	12.4	0
27	2392	12.5	0
27	2423	12.6	0
27	2454	12.7	0
27	2485	12.8	0
27	2516	12.9	0
27	2547	13	0
27	2578	13.1	0
27	2609	13.2	0
27	2640	13.3	0
27	2671	13.4	0
27	2702	13.5	0
27	2733	13.6	0
27	2764	13.7	0
27	2795	13.8	0
27	2826	13.9	0
27	2857	14	0
27	2888	14.1	0
27	2919	14.2	0
27	2950	14.3	0
27	2981	14.4	0
27	3012	14.5	0
27	3043	14.6	0
27	3074	14.7	0
27	3105	14.8	0
27	3136	14.9	0
27	3167	15	0
27	3198	15.1	0
27	3229	15.2	0
27	3260	15.3	0
27	3291	15.4	0
27	3322	15.5	0
27	3353	15.6	0
27	3384	15.7	0
27	3415	15.8	0
27	3446	15.9	0
27	3477	16	0
27	3508	16.1	0
27	3539	16.2	0
27	3570	16.3	0
27	3601	16.4	0
27	3632	16.5	0
27	3663	16.6	0
27	3694	16.7	0
27	3725	16.8	0
27	3756	16.9	0
27	3787	17	0
27	3818	17.1	0
27	3849	17.2	0
27	3880	17.3	0
27	3911	17.4	0
27	3942	17.5	0
27	3973	17.6	0
27	4004	17.7	0
27	4035	17.8	0
27	4066	17.9	0
27	4097	18	0
27	4128	18.1	0
27	4159	18.2	0
27	4190	18.3	0
27	4221	18.4	0
27	4252	18.5	0
27	4283	18.6	0
27	4314	18.7	0
27	4345	18.8	0
27	4376	18.9	0
27	4407	19	0
27	4438	19.1	0
27	4469	19.2	0
27	4500	19.3	0
27	4531	19.4	0
27	4562	19.5	0
27	4593	19.6	0
27	4624	19.7	0
27	4655	19.8	0
27	4686	19.9	0
27	4717	20	0
27	4748	20.1	0
27	4779	20.2	0
27	4810	20.3	0
27	4841	20.4	0
27	4872	20.5	0
27	4903	20.6	0
27	4934	20.7	0
27	4965	20.8	0
27	4996	20.9	0
27	5027	21	0
27	5058	21.1	0
27	5089	21.2	0
27	5120	21.3	0
27	5151	21.4	0
27	5182	21.5	0
27	5213	21.6	0
27	5244	21.7	0
27	5275	21.8	0
27	5306	21.9	0
27	5337	22	0
27	5368	22.1	0
27	5399	22.2	0
27	5430	22.3	0
27	5461	22.4	0
27	5492	22.5	0
27	5523	22.6	0
27	5554	22.7	0
27	5585	22.8	0
27	5616	22.9	0
27	5647	23	0
27	5678	23.1	0
27	5709	23.2	0
27	5740	23.3	0
27	5771	23.4	0
27	5802	23.5	0
27	5833	23.6	0
27	5864	23.7	0
27	5895	23.8	0
27	5926	23.9	0
27	5957	24	0
27	5988	24.1	0
27	6019	24.2	0
27	6050	24.3	0
27	6081	24.4	0
27	6112	24.5	0
27	6143	24.6	0
27	6174	24.7	0
27	6205	24.8	0
27	6236	24.9	0
26	129	5.2	570
26	160	5.3	570
26	191	5.4	570
26	222	5.5	570
26	253	5.6	570
26	284	5.7	570
26	315	5.8	570
26	346	5.9	570
26	377	6	570
26	408	6.1	570
26	439	6.2	570
26	470	6.3	570
26	501	6.4	570
26	532	6.5	570
26	563	6.6	570
26	594	6.7	570
26	625	6.8	570
26	656	6.9	570
26	687	7	570
26	718	7.1	570
26	749	7.2	570
26	780	7.3	570
26	811	7.4	570
26	842	7.5	570
26	873	7.6	570
26	904	7.7	570
26	935	7.8	570
26	966	7.9	570
26	997	8	570
26	1028	8.1	570
26	1059	8.2	570
26	1090	8.3	570
26	1121	8.4	570
26	1152	8.5	570
26	1183	8.6	570
26	1214	8.7	570
26	1245	8.8	570
26	1276	8.9	570
26	1307	9	570
26	1338	9.1	570
26	1369	9.2	570
26	1400	9.3	570
26	1431	9.4	570
26	1462	9.5	570
26	1493	9.6	570
26	1524	9.7	570
26	1555	9.8	570
26	1586	9.9	570
26	1617	10	570
26	1648	10.1	570
26	1679	10.2	570
26	1710	10.3	570
26	1741	10.4	570
26	1772	10.5	570
26	1803	10.6	570
26	1834	10.7	570
26	1865	10.8	570
26	1896	10.9	570
26	1927	11	570
26	1958	11.1	570
26	1989	11.2	570
26	2020	11.3	570
26	2051	11.4	570
26	2082	11.5	570
26	2113	11.6	570
26	2144	11.7	570
26	2175	11.8	570
26	2206	11.9	570
26	2237	12	570
26	2268	12.1	570
26	2299	12.2	570
26	2330	12.3	570
26	2361	12.4	570
26	2392	12.5	570
26	2423	12.6	570
26	2454	12.7	570
26	2485	12.8	570
26	2516	12.9	570
26	2547	13	570
26	2578	13.1	570
26	2609	13.2	570
26	2640	13.3	570
26	2671	13.4	570
26	2702	13.5	570
26	2733	13.6	570
26	2764	13.7	570
26	2795	13.8	570
26	2826	13.9	570
26	2857	14	570
26	2888	14.1	570
26	2919	14.2	570
26	2950	14.3	570
26	2981	14.4	570
26	3012	14.5	570
26	3043	14.6	570
26	3074	14.7	570
26	3105	14.8	570
26	3136	14.9	570
26	3167	15	570
26	3198	15.1	570
26	3229	15.2	570
26	3260	15.3	570
26	3291	15.4	570
26	3322	15.5	570
26	3353	15.6	570
26	3384	15.7	570
26	3415	15.8	570
26	3446	15.9	570
26	3477	16	570
26	3508	16.1	570
26	3539	16.2	570
26	3570	16.3	570
26	3601	16.4	570
26	3632	16.5	570
26	3663	16.6	570
26	3694	16.7	570
26	3725	16.8	570
26	3756	16.9	570
26	3787	17	570
26	3818	17.1	570
26	3849	17.2	570
26	3880	17.3	570
26	3911	17.4	570
26	3942	17.5	570
26	3973	17.6	570
26	4004	17.7	570
26	4035	17.8	570
26	4066	17.9	570
26	4097	18	570
26	4128	18.1	570
26	4159	18.2	570
26	4190	18.3	570
26	4221	18.4	570
26	4252	18.5	570
26	4283	18.6	570
26	4314	18.7	570
26	4345	18.8	570
26	4376	18.9	570
26	4407	19	570
26	4438	19.1	570
26	4469	19.2	570
26	4500	19.3	570
26	4531	19.4	570
26	4562	19.5	570
26	4593	19.6	570
26	4624	19.7	570
26	4655	19.8	570
26	4686	19.9	570
26	4717	20	570
26	4748	20.1	570
26	4779	20.2	570
26	4810	20.3	570
26	4841	20.4	570
26	4872	20.5	570
26	4903	20.6	570
26	4934	20.7	570
26	4965	20.8	570
26	4996	20.9	570
26	5027	21	570
26	5058	21.1	570
26	5089	21.2	570
26	5120	21.3	570
26	5151	21.4	570
26	5182	21.5	570
26	5213	21.6	570
26	5244	21.7	570
26	5275	21.8	570
26	5306	21.9	570
26	5337	22	570
26	5368	22.1	570
26	5399	22.2	570
26	5430	22.3	570
26	5461	22.4	570
26	5492	22.5	570
26	5523	22.6	570
26	5554	22.7	570
26	5585	22.8	570
26	5616	22.9	570
26	5647	23	570
26	5678	23.1	570
26	5709	23.2	570
26	5740	23.3	570
26	5771	23.4	570
26	5802	23.5	570
26	5833	23.6	570
26	5864	23.7	570
26	5895	23.8	570
26	5926	23.9	570
26	5957	24	570
26	5988	24.1	570
26	6019	24.2	570
26	6050	24.3	570
26	6081	24.4	570
26	6112	24.5	570
26	6143	24.6	570
26	6174	24.7	570
26	6205	24.8	570
26	6236	24.9	570
14	125	5.2	570
14	156	5.3	570
14	187	5.4	570
14	218	5.5	570
14	249	5.6	570
14	280	5.7	570
14	311	5.8	570
14	342	5.9	570
14	373	6	570
14	404	6.1	570
14	435	6.2	570
14	466	6.3	570
14	497	6.4	570
14	528	6.5	570
14	559	6.6	570
14	590	6.7	570
14	621	6.8	570
14	652	6.9	570
14	683	7	570
14	714	7.1	570
14	745	7.2	570
14	776	7.3	570
14	807	7.4	570
14	838	7.5	570
14	869	7.6	570
14	900	7.7	570
14	931	7.8	570
14	962	7.9	570
14	993	8	570
14	1024	8.1	570
14	1055	8.2	570
14	1086	8.3	570
14	1117	8.4	570
14	1148	8.5	570
14	1179	8.6	570
14	1210	8.7	570
14	1241	8.8	570
14	1272	8.9	570
14	1303	9	570
14	1334	9.1	570
14	1365	9.2	570
14	1396	9.3	570
14	1427	9.4	570
14	1458	9.5	570
14	1489	9.6	570
14	1520	9.7	570
14	1551	9.8	570
14	1582	9.9	570
14	1613	10	570
14	1644	10.1	570
14	1675	10.2	570
14	1706	10.3	570
14	1737	10.4	570
14	1768	10.5	570
14	1799	10.6	570
14	1830	10.7	570
14	1861	10.8	570
14	1892	10.9	570
14	1923	11	570
14	1954	11.1	570
14	1985	11.2	570
14	2016	11.3	570
14	2047	11.4	570
14	2078	11.5	570
14	2109	11.6	570
14	2140	11.7	570
14	2171	11.8	570
14	2202	11.9	570
14	2233	12	570
14	2264	12.1	570
14	2295	12.2	570
14	2326	12.3	570
14	2357	12.4	570
14	2388	12.5	570
14	2419	12.6	570
14	2450	12.7	570
14	2481	12.8	570
14	2512	12.9	570
14	2543	13	570
14	2574	13.1	570
14	2605	13.2	570
14	2636	13.3	570
14	2667	13.4	570
14	2698	13.5	570
14	2729	13.6	570
14	2760	13.7	570
14	2791	13.8	570
14	2822	13.9	570
14	2853	14	570
14	2884	14.1	570
14	2915	14.2	570
14	2946	14.3	570
14	2977	14.4	570
14	3008	14.5	570
14	3039	14.6	570
14	3070	14.7	570
14	3101	14.8	570
14	3132	14.9	570
14	3163	15	570
14	3194	15.1	570
14	3225	15.2	570
14	3256	15.3	570
14	3287	15.4	570
14	3318	15.5	570
14	3349	15.6	570
14	3380	15.7	570
14	3411	15.8	570
14	3442	15.9	570
14	3473	16	570
14	3504	16.1	570
14	3535	16.2	570
14	3566	16.3	570
14	3597	16.4	570
14	3628	16.5	570
14	3659	16.6	570
14	3690	16.7	570
14	3721	16.8	570
14	3752	16.9	570
14	3783	17	570
14	3814	17.1	570
14	3845	17.2	570
14	3876	17.3	570
14	3907	17.4	570
14	3938	17.5	570
14	3969	17.6	570
14	4000	17.7	570
14	4031	17.8	570
14	4062	17.9	570
14	4093	18	570
14	4124	18.1	570
14	4155	18.2	570
14	4186	18.3	570
14	4217	18.4	570
14	4248	18.5	570
14	4279	18.6	570
14	4310	18.7	570
14	4341	18.8	570
14	4372	18.9	570
14	4403	19	570
14	4434	19.1	570
14	4465	19.2	570
14	4496	19.3	570
14	4527	19.4	570
14	4558	19.5	570
14	4589	19.6	570
14	4620	19.7	570
14	4651	19.8	570
14	4682	19.9	570
14	4713	20	570
14	4744	20.1	570
14	4775	20.2	570
14	4806	20.3	570
14	4837	20.4	570
14	4868	20.5	570
14	4899	20.6	570
14	4930	20.7	570
14	4961	20.8	570
14	4992	20.9	570
14	5023	21	570
14	5054	21.1	570
14	5085	21.2	570
14	5116	21.3	570
14	5147	21.4	570
14	5178	21.5	570
14	5209	21.6	570
14	5240	21.7	570
14	5271	21.8	570
14	5302	21.9	570
14	5333	22	570
14	5364	22.1	570
14	5395	22.2	570
14	5426	22.3	570
14	5457	22.4	570
14	5488	22.5	570
14	5519	22.6	570
14	5550	22.7	570
14	5581	22.8	570
14	5612	22.9	570
14	5643	23	570
14	5674	23.1	570
14	5705	23.2	570
14	5736	23.3	570
14	5767	23.4	570
14	5798	23.5	570
14	5829	23.6	570
14	5860	23.7	570
14	5891	23.8	570
14	5922	23.9	570
14	5953	24	570
14	5984	24.1	570
14	6015	24.2	570
14	6046	24.3	570
14	6077	24.4	570
14	6108	24.5	570
14	6139	24.6	570
14	6170	24.7	570
14	6201	24.8	570
14	6232	24.9	570
15	125	5.2	1
15	129	5.2	0
15	156	5.3	1
15	160	5.3	0
15	187	5.4	1
15	191	5.4	0
15	218	5.5	1
15	222	5.5	0
15	249	5.6	1
15	253	5.6	0
15	280	5.7	1
15	284	5.7	0
15	311	5.8	1
15	315	5.8	0
15	342	5.9	1
15	346	5.9	0
15	373	6	1
15	377	6	0
15	404	6.1	1
15	408	6.1	0
15	435	6.2	1
15	439	6.2	0
15	466	6.3	1
15	470	6.3	0
15	497	6.4	1
15	501	6.4	0
15	528	6.5	1
15	532	6.5	0
15	559	6.6	1
15	563	6.6	0
15	590	6.7	1
15	594	6.7	0
15	621	6.8	1
15	625	6.8	0
15	652	6.9	1
15	656	6.9	0
15	683	7	1
15	687	7	0
15	714	7.1	1
15	718	7.1	0
15	745	7.2	1
15	749	7.2	0
15	776	7.3	1
15	780	7.3	0
15	807	7.4	1
15	811	7.4	0
15	838	7.5	1
15	842	7.5	0
15	869	7.6	1
15	873	7.6	0
15	900	7.7	1
15	904	7.7	0
15	931	7.8	1
15	935	7.8	0
15	962	7.9	1
15	966	7.9	0
15	993	8	1
15	997	8	0
15	1024	8.1	1
15	1028	8.1	0
15	1055	8.2	1
15	1059	8.2	0
15	1086	8.3	1
15	1090	8.3	0
15	1117	8.4	1
15	1121	8.4	0
15	1148	8.5	1
15	1152	8.5	0
15	1179	8.6	1
15	1183	8.6	0
15	1210	8.7	1
15	1214	8.7	0
15	1241	8.8	1
15	1245	8.8	0
15	1272	8.9	1
15	1276	8.9	0
15	1303	9	1
15	1307	9	0
15	1334	9.1	1
15	1338	9.1	0
15	1365	9.2	1
15	1369	9.2	0
15	1396	9.3	1
15	1400	9.3	0
15	1427	9.4	1
15	1431	9.4	0
15	1458	9.5	1
15	1462	9.5	0
15	1489	9.6	1
15	1493	9.6	0
15	1520	9.7	1
15	1524	9.7	0
15	1551	9.8	1
15	1555	9.8	0
15	1582	9.9	1
15	1586	9.9	0
15	1613	10	1
15	1617	10	0
15	1644	10.1	1
15	1648	10.1	0
15	1675	10.2	1
15	1679	10.2	0
15	1706	10.3	1
15	1710	10.3	0
15	1737	10.4	1
15	1741	10.4	0
15	1768	10.5	1
15	1772	10.5	0
15	1799	10.6	1
15	1803	10.6	0
15	1830	10.7	1
15	1834	10.7	0
15	1861	10.8	1
15	1865	10.8	0
15	1892	10.9	1
15	1896	10.9	0
15	1923	11	1
15	1927	11	0
15	1954	11.1	1
15	1958	11.1	0
15	1985	11.2	1
15	1989	11.2	0
15	2016	11.3	1
15	2020	11.3	0
15	2047	11.4	1
15	2051	11.4	0
15	2078	11.5	1
15	2082	11.5	0
15	2109	11.6	1
15	2113	11.6	0
15	2140	11.7	1
15	2144	11.7	0
15	2171	11.8	1
15	2175	11.8	0
15	2202	11.9	1
15	2206	11.9	0
15	2233	12	1
15	2237	12	0
15	2264	12.1	1
15	2268	12.1	0
15	2295	12.2	1
15	2299	12.2	0
15	2326	12.3	1
15	2330	12.3	0
15	2357	12.4	1
15	2361	12.4	0
15	2388	12.5	1
15	2392	12.5	0
15	2419	12.6	1
15	2423	12.6	0
15	2450	12.7	1
15	2454	12.7	0
15	2481	12.8	1
15	2485	12.8	0
15	2512	12.9	1
15	2516	12.9	0
15	2543	13	1
15	2547	13	0
15	2574	13.1	1
15	2578	13.1	0
15	2605	13.2	1
15	2609	13.2	0
15	2636	13.3	1
15	2640	13.3	0
15	2667	13.4	1
15	2671	13.4	0
15	2698	13.5	1
15	2702	13.5	0
15	2729	13.6	1
15	2733	13.6	0
15	2760	13.7	1
15	2764	13.7	0
15	2791	13.8	1
15	2795	13.8	0
15	2822	13.9	1
15	2826	13.9	0
15	2853	14	1
15	2857	14	0
15	2884	14.1	1
15	2888	14.1	0
15	2915	14.2	1
15	2919	14.2	0
15	2946	14.3	1
15	2950	14.3	0
15	2977	14.4	1
15	2981	14.4	0
15	3008	14.5	1
15	3012	14.5	0
15	3039	14.6	1
15	3043	14.6	0
15	3070	14.7	1
15	3074	14.7	0
15	3101	14.8	1
15	3105	14.8	0
15	3132	14.9	1
15	3136	14.9	0
15	3163	15	1
15	3167	15	0
15	3194	15.1	1
15	3198	15.1	0
15	3225	15.2	1
15	3229	15.2	0
15	3256	15.3	1
15	3260	15.3	0
15	3287	15.4	1
15	3291	15.4	0
15	3318	15.5	1
15	3322	15.5	0
15	3349	15.6	1
15	3353	15.6	0
15	3380	15.7	1
15	3384	15.7	0
15	3411	15.8	1
15	3415	15.8	0
15	3442	15.9	1
15	3446	15.9	0
15	3473	16	1
15	3477	16	0
15	3504	16.1	1
15	3508	16.1	0
15	3535	16.2	1
15	3539	16.2	0
15	3566	16.3	1
15	3570	16.3	0
15	3597	16.4	1
15	3601	16.4	0
15	3628	16.5	1
15	3632	16.5	0
15	3659	16.6	1
15	3663	16.6	0
15	3690	16.7	1
15	3694	16.7	0
15	3721	16.8	1
15	3725	16.8	0
15	3752	16.9	1
15	3756	16.9	0
15	3783	17	1
15	3787	17	0
15	3814	17.1	1
15	3818	17.1	0
15	3845	17.2	1
15	3849	17.2	0
15	3876	17.3	1
15	3880	17.3	0
15	3907	17.4	1
15	3911	17.4	0
15	3938	17.5	1
15	3942	17.5	0
15	3969	17.6	1
15	3973	17.6	0
15	4000	17.7	1
15	4004	17.7	0
15	4031	17.8	1
15	4035	17.8	0
15	4062	17.9	1
15	4066	17.9	0
15	4093	18	1
15	4097	18	0
15	4124	18.1	1
15	4128	18.1	0
15	4155	18.2	1
15	4159	18.2	0
15	4186	18.3	1
15	4190	18.3	0
15	4217	18.4	1
15	4221	18.4	0
15	4248	18.5	1
15	4252	18.5	0
15	4279	18.6	1
15	4283	18.6	0
15	4310	18.7	1
15	4314	18.7	0
15	4341	18.8	1
15	4345	18.8	0
15	4372	18.9	1
15	4376	18.9	0
15	4403	19	1
15	4407	19	0
15	4434	19.1	1
15	4438	19.1	0
15	4465	19.2	1
15	4469	19.2	0
15	4496	19.3	1
15	4500	19.3	0
15	4527	19.4	1
15	4531	19.4	0
15	4558	19.5	1
15	4562	19.5	0
15	4589	19.6	1
15	4593	19.6	0
15	4620	19.7	1
15	4624	19.7	0
15	4651	19.8	1
15	4655	19.8	0
15	4682	19.9	1
15	4686	19.9	0
15	4713	20	1
15	4717	20	0
15	4744	20.1	1
15	4748	20.1	0
15	4775	20.2	1
15	4779	20.2	0
15	4806	20.3	1
15	4810	20.3	0
15	4837	20.4	1
15	4841	20.4	0
15	4868	20.5	1
15	4872	20.5	0
15	4899	20.6	1
15	4903	20.6	0
15	4930	20.7	1
15	4934	20.7	0
15	4961	20.8	1
15	4965	20.8	0
15	4992	20.9	1
15	4996	20.9	0
15	5023	21	1
15	5027	21	0
15	5054	21.1	1
15	5058	21.1	0
15	5085	21.2	1
15	5089	21.2	0
15	5116	21.3	1
15	5120	21.3	0
15	5147	21.4	1
15	5151	21.4	0
15	5178	21.5	1
15	5182	21.5	0
15	5209	21.6	1
15	5213	21.6	0
15	5240	21.7	1
15	5244	21.7	0
15	5271	21.8	1
15	5275	21.8	0
15	5302	21.9	1
15	5306	21.9	0
15	5333	22	1
15	5337	22	0
15	5364	22.1	1
15	5368	22.1	0
15	5395	22.2	1
15	5399	22.2	0
15	5426	22.3	1
15	5430	22.3	0
15	5457	22.4	1
15	5461	22.4	0
15	5488	22.5	1
15	5492	22.5	0
15	5519	22.6	1
15	5523	22.6	0
15	5550	22.7	1
15	5554	22.7	0
15	5581	22.8	1
15	5585	22.8	0
15	5612	22.9	1
15	5616	22.9	0
15	5643	23	1
15	5647	23	0
15	5674	23.1	1
15	5678	23.1	0
15	5705	23.2	1
15	5709	23.2	0
15	5736	23.3	1
15	5740	23.3	0
15	5767	23.4	1
15	5771	23.4	0
15	5798	23.5	1
15	5802	23.5	0
15	5829	23.6	1
15	5833	23.6	0
15	5860	23.7	1
15	5864	23.7	0
15	5891	23.8	1
15	5895	23.8	0
15	5922	23.9	1
15	5926	23.9	0
15	5953	24	1
15	5957	24	0
15	5984	24.1	1
15	5988	24.1	0
15	6015	24.2	1
15	6019	24.2	0
15	6046	24.3	1
15	6050	24.3	0
15	6077	24.4	1
15	6081	24.4	0
15	6108	24.5	1
15	6112	24.5	0
15	6139	24.6	1
15	6143	24.6	0
15	6170	24.7	1
15	6174	24.7	0
15	6201	24.8	1
15	6205	24.8	0
15	6232	24.9	1
15	6236	24.9	0
36	103	5.100424	0.000424
36	134	5.200424	0.000424
36	165	5.300424	0.000424
36	196	5.400424	0.000424
36	227	5.500424	0.000424
36	258	5.600424	0.000424
36	289	5.700424	0.000424
36	320	5.800424	0.000424
36	351	5.900424	0.000424
36	382	6.000424	0.000424
36	413	6.100424	0.000424
36	444	6.200424	0.000424
36	475	6.300424	0.000424
36	506	6.400424	0.000424
36	537	6.500424	0.000424
36	568	6.600424	0.000424
36	599	6.700424	0.000424
36	630	6.800424	0.000424
36	661	6.900424	0.000424
36	692	7.000424	0.000424
36	723	7.100424	0.000424
36	754	7.200424	0.000424
36	785	7.300424	0.000424
36	816	7.400424	0.000424
36	847	7.500424	0.000424
36	878	7.600424	0.000424
36	909	7.700424	0.000424
36	940	7.800424	0.000424
36	971	7.900424	0.000424
36	1002	8.000424	0.000424
36	1033	8.100424	0.000424
36	1064	8.200424	0.000424
36	1095	8.300424	0.000424
36	1126	8.400424	0.000424
36	1157	8.500424	0.000424
36	1188	8.600424	0.000424
36	1219	8.700424	0.000424
36	1250	8.800424	0.000424
36	1281	8.900424	0.000424
36	1312	9.000424	0.000424
36	1343	9.100424	0.000424
36	1374	9.200424	0.000424
36	1405	9.300424	0.000424
36	1436	9.400424	0.000424
36	1467	9.500424	0.000424
36	1498	9.600424	0.000424
36	1529	9.700424	0.000424
36	1560	9.800424	0.000424
36	1591	9.900424	0.000424
36	1622	10.000424	0.000424
36	1653	10.100424	0.000424
36	1684	10.200424	0.000424
36	1715	10.300424	0.000424
36	1746	10.400424	0.000424
36	1777	10.500424	0.000424
36	1808	10.600424	0.000424
36	1839	10.700424	0.000424
36	1870	10.800424	0.000424
36	1901	10.900424	0.000424
36	1932	11.000424	0.000424
36	1963	11.100424	0.000424
36	1994	11.200424	0.000424
36	2025	11.300424	0.000424
36	2056	11.400424	0.000424
36	2087	11.500424	0.000424
36	2118	11.600424	0.000424
36	2149	11.700424	0.000424
36	2180	11.800424	0.000424
36	2211	11.900424	0.000424
36	2242	12.000424	0.000424
36	2273	12.100424	0.000424
36	2304	12.200424	0.000424
36	2335	12.300424	0.000424
36	2366	12.400424	0.000424
36	2397	12.500424	0.000424
36	2428	12.600424	0.000424
36	2459	12.700424	0.000424
36	2490	12.800424	0.000424
36	2521	12.900424	0.000424
36	2552	13.000424	0.000424
36	2583	13.100424	0.000424
36	2614	13.200424	0.000424
36	2645	13.300424	0.000424
36	2676	13.400424	0.000424
36	2707	13.500424	0.000424
36	2738	13.600424	0.000424
36	2769	13.700424	0.000424
36	2800	13.800424	0.000424
36	2831	13.900424	0.000424
36	2862	14.000424	0.000424
36	2893	14.100424	0.000424
36	2924	14.200424	0.000424
36	2955	14.300424	0.000424
36	2986	14.400424	0.000424
36	3017	14.500424	0.000424
36	3048	14.600424	0.000424
36	3079	14.700424	0.000424
36	3110	14.800424	0.000424
36	3141	14.900424	0.000424
36	3172	15.000424	0.000424
36	3203	15.100424	0.000424
36	3234	15.200424	0.000424
36	3265	15.300424	0.000424
36	3296	15.400424	0.000424
36	3327	15.500424	0.000424
36	3358	15.600424	0.000424
36	3389	15.700424	0.000424
36	3420	15.800424	0.000424
36	3451	15.900424	0.000424
36	3482	16.000424	0.000424
36	3513	16.100424	0.000424
36	3544	16.200424	0.000424
36	3575	16.300424	0.000424
36	3606	16.400424	0.000424
36	3637	16.500424	0.000424
36	3668	16.600424	0.000424
36	3699	16.700424	0.000424
36	3730	16.800424	0.000424
36	3761	16.900424	0.000424
36	3792	17.000424	0.000424
36	3823	17.100424	0.000424
36	3854	17.200424	0.000424
36	3885	17.300424	0.000424
36	3916	17.400424	0.000424
36	3947	17.500424	0.000424
36	3978	17.600424	0.000424
36	4009	17.700424	0.000424
36	4040	17.800424	0.000424
36	4071	17.900424	0.000424
36	4102	18.000424	0.000424
36	4133	18.100424	0.000424
36	4164	18.200424	0.000424
36	4195	18.300424	0.000424
36	4226	18.400424	0.000424
36	4257	18.500424	0.000424
36	4288	18.600424	0.000424
36	4319	18.700424	0.000424
36	4350	18.800424	0.000424
36	4381	18.900424	0.000424
36	4412	19.000424	0.000424
36	4443	19.100424	0.000424
36	4474	19.200424	0.000424
36	4505	19.300424	0.000424
36	4536	19.400424	0.000424
36	4567	19.500424	0.000424
36	4598	19.600424	0.000424
36	4629	19.700424	0.000424
36	4660	19.800424	0.000424
36	4691	19.900424	0.000424
36	4722	20.000424	0.000424
36	4753	20.100424	0.000424
36	4784	20.200424	0.000424
36	4815	20.300424	0.000424
36	4846	20.400424	0.000424
36	4877	20.500424	0.000424
36	4908	20.600424	0.000424
36	4939	20.700424	0.000424
36	4970	20.800424	0.000424
36	5001	20.900424	0.000424
36	5032	21.000424	0.000424
36	5063	21.100424	0.000424
36	5094	21.200424	0.000424
36	5125	21.300424	0.000424
36	5156	21.400424	0.000424
36	5187	21.500424	0.000424
36	5218	21.600424	0.000424
36	5249	21.700424	0.000424
36	5280	21.800424	0.000424
36	5311	21.900424	0.000424
36	5342	22.000424	0.000424
36	5373	22.100424	0.000424
36	5404	22.200424	0.000424
36	5435	22.300424	0.000424
36	5466	22.400424	0.000424
36	5497	22.500424	0.000424
36	5528	22.600424	0.000424
36	5559	22.700424	0.000424
36	5590	22.800424	0.000424
36	5621	22.900424	0.000424
36	5652	23.000424	0.000424
36	5683	23.100424	0.000424
36	5714	23.200424	0.000424
36	5745	23.300424	0.000424
36	5776	23.400424	0.000424
36	5807	23.500424	0.000424
36	5838	23.600424	0.000424
36	5869	23.700424	0.000424
36	5900	23.800424	0.000424
36	5931	23.900424	0.000424
36	5962	24.000424	0.000424
36	5993	24.100424	0.000424
36	6024	24.200424	0.000424
36	6055	24.300424	0.000424
36	6086	24.400424	0.000424
36	6117	24.500424	0.000424
36	6148	24.600424	0.000424
36	6179	24.700424	0.000424
36	6210	24.800424	0.000424
36	6241	24.900424	0.000424
28	103	5.100424	0
28	129	5.2	1
28	134	5.200424	0
28	160	5.3	1
28	165	5.300424	0
28	191	5.4	1
28	196	5.400424	0
28	222	5.5	1
28	227	5.500424	0
28	253	5.6	1
28	258	5.600424	0
28	284	5.7	1
28	289	5.700424	0
28	315	5.8	1
28	320	5.800424	0
28	346	5.9	1
28	351	5.900424	0
28	377	6	1
28	382	6.000424	0
28	408	6.1	1
28	413	6.100424	0
28	439	6.2	1
28	444	6.200424	0
28	470	6.3	1
28	475	6.300424	0
28	501	6.4	1
28	506	6.400424	0
28	532	6.5	1
28	537	6.500424	0
28	563	6.6	1
28	568	6.600424	0
28	594	6.7	1
28	599	6.700424	0
28	625	6.8	1
28	630	6.800424	0
28	656	6.9	1
28	661	6.900424	0
28	687	7	1
28	692	7.000424	0
28	718	7.1	1
28	723	7.100424	0
28	749	7.2	1
28	754	7.200424	0
28	780	7.3	1
28	785	7.300424	0
28	811	7.4	1
28	816	7.400424	0
28	842	7.5	1
28	847	7.500424	0
28	873	7.6	1
28	878	7.600424	0
28	904	7.7	1
28	909	7.700424	0
28	935	7.8	1
28	940	7.800424	0
28	966	7.9	1
28	971	7.900424	0
28	997	8	1
28	1002	8.000424	0
28	1028	8.1	1
28	1033	8.100424	0
28	1059	8.2	1
28	1064	8.200424	0
28	1090	8.3	1
28	1095	8.300424	0
28	1121	8.4	1
28	1126	8.400424	0
28	1152	8.5	1
28	1157	8.500424	0
28	1183	8.6	1
28	1188	8.600424	0
28	1214	8.7	1
28	1219	8.700424	0
28	1245	8.8	1
28	1250	8.800424	0
28	1276	8.9	1
28	1281	8.900424	0
28	1307	9	1
28	1312	9.000424	0
28	1338	9.1	1
28	1343	9.100424	0
28	1369	9.2	1
28	1374	9.200424	0
28	1400	9.3	1
28	1405	9.300424	0
28	1431	9.4	1
28	1436	9.400424	0
28	1462	9.5	1
28	1467	9.500424	0
28	1493	9.6	1
28	1498	9.600424	0
28	1524	9.7	1
28	1529	9.700424	0
28	1555	9.8	1
28	1560	9.800424	0
28	1586	9.9	1
28	1591	9.900424	0
28	1617	10	1
28	1622	10.000424	0
28	1648	10.1	1
28	1653	10.100424	0
28	1679	10.2	1
28	1684	10.200424	0
28	1710	10.3	1
28	1715	10.300424	0
28	1741	10.4	1
28	1746	10.400424	0
28	1772	10.5	1
28	1777	10.500424	0
28	1803	10.6	1
28	1808	10.600424	0
28	1834	10.7	1
28	1839	10.700424	0
28	1865	10.8	1
28	1870	10.800424	0
28	1896	10.9	1
28	1901	10.900424	0
28	1927	11	1
28	1932	11.000424	0
28	1958	11.1	1
28	1963	11.100424	0
28	1989	11.2	1
28	1994	11.200424	0
28	2020	11.3	1
28	2025	11.300424	0
28	2051	11.4	1
28	2056	11.400424	0
28	2082	11.5	1
28	2087	11.500424	0
28	2113	11.6	1
28	2118	11.600424	0
28	2144	11.7	1
28	2149	11.700424	0
28	2175	11.8	1
28	2180	11.800424	0
28	2206	11.9	1
28	2211	11.900424	0
28	2237	12	1
28	2242	12.000424	0
28	2268	12.1	1
28	2273	12.100424	0
28	2299	12.2	1
28	2304	12.200424	0
28	2330	12.3	1
28	2335	12.300424	0
28	2361	12.4	1
28	2366	12.400424	0
28	2392	12.5	1
28	2397	12.500424	0
28	2423	12.6	1
28	2428	12.600424	0
28	2454	12.7	1
28	2459	12.700424	0
28	2485	12.8	1
28	2490	12.800424	0
28	2516	12.9	1
28	2521	12.900424	0
28	2547	13	1
28	2552	13.000424	0
28	2578	13.1	1
28	2583	13.100424	0
28	2609	13.2	1
28	2614	13.200424	0
28	2640	13.3	1
28	2645	13.300424	0
28	2671	13.4	1
28	2676	13.400424	0
28	2702	13.5	1
28	2707	13.500424	0
28	2733	13.6	1
28	2738	13.600424	0
28	2764	13.7	1
28	2769	13.700424	0
28	2795	13.8	1
28	2800	13.800424	0
28	2826	13.9	1
28	2831	13.900424	0
28	2857	14	1
28	2862	14.000424	0
28	2888	14.1	1
28	2893	14.100424	0
28	2919	14.2	1
28	2924	14.200424	0
28	2950	14.3	1
28	2955	14.300424	0
28	2981	14.4	1
28	2986	14.400424	0
28	3012	14.5	1
28	3017	14.500424	0
28	3043	14.6	1
28	3048	14.600424	0
28	3074	14.7	1
28	3079	14.700424	0
28	3105	14.8	1
28	3110	14.800424	0
28	3136	14.9	1
28	3141	14.900424	0
28	3167	15	1
28	3172	15.000424	0
28	3198	15.1	1
28	3203	15.100424	0
28	3229	15.2	1
28	3234	15.200424	0
28	3260	15.3	1
28	3265	15.300424	0
28	3291	15.4	1
28	3296	15.400424	0
28	3322	15.5	1
28	3327	15.500424	0
28	3353	15.6	1
28	3358	15.600424	0
28	3384	15.7	1
28	3389	15.700424	0
28	3415	15.8	1
28	3420	15.800424	0
28	3446	15.9	1
28	3451	15.900424	0
28	3477	16	1
28	3482	16.000424	0
28	3508	16.1	1
28	3513	16.100424	0
28	3539	16.2	1
28	3544	16.200424	0
28	3570	16.3	1
28	3575	16.300424	0
28	3601	16.4	1
28	3606	16.400424	0
28	3632	16.5	1
28	3637	16.500424	0
28	3663	16.6	1
28	3668	16.600424	0
28	3694	16.7	1
28	3699	16.700424	0
28	3725	16.8	1
28	3730	16.800424	0
28	3756	16.9	1
28	3761	16.900424	0
28	3787	17	1
28	3792	17.000424	0
28	3818	17.1	1
28	3823	17.100424	0
28	3849	17.2	1
28	3854	17.200424	0
28	3880	17.3	1
28	3885	17.300424	0
28	3911	17.4	1
28	3916	17.400424	0
28	3942	17.5	1
28	3947	17.500424	0
28	3973	17.6	1
28	3978	17.600424	0
28	4004	17.7	1
28	4009	17.700424	0
28	4035	17.8	1
28	4040	17.800424	0
28	4066	17.9	1
28	4071	17.900424	0
28	4097	18	1
28	4102	18.000424	0
28	4128	18.1	1
28	4133	18.100424	0
28	4159	18.2	1
28	4164	18.200424	0
28	4190	18.3	1
28	4195	18.300424	0
28	4221	18.4	1
28	4226	18.400424	0
28	4252	18.5	1
28	4257	18.500424	0
28	4283	18.6	1
28	4288	18.600424	0
28	4314	18.7	1
28	4319	18.700424	0
28	4345	18.8	1
28	4350	18.800424	0
28	4376	18.9	1
28	4381	18.900424	0
28	4407	19	1
28	4412	19.000424	0
28	4438	19.1	1
28	4443	19.100424	0
28	4469	19.2	1
28	4474	19.200424	0
28	4500	19.3	1
28	4505	19.300424	0
28	4531	19.4	1
28	4536	19.400424	0
28	4562	19.5	1
28	4567	19.500424	0
28	4593	19.6	1
28	4598	19.600424	0
28	4624	19.7	1
28	4629	19.700424	0
28	4655	19.8	1
28	4660	19.800424	0
28	4686	19.9	1
28	4691	19.900424	0
28	4717	20	1
28	4722	20.000424	0
28	4748	20.1	1
28	4753	20.100424	0
28	4779	20.2	1
28	4784	20.200424	0
28	4810	20.3	1
28	4815	20.300424	0
28	4841	20.4	1
28	4846	20.400424	0
28	4872	20.5	1
28	4877	20.500424	0
28	4903	20.6	1
28	4908	20.600424	0
28	4934	20.7	1
28	4939	20.700424	0
28	4965	20.8	1
28	4970	20.800424	0
28	4996	20.9	1
28	5001	20.900424	0
28	5027	21	1
28	5032	21.000424	0
28	5058	21.1	1
28	5063	21.100424	0
28	5089	21.2	1
28	5094	21.200424	0
28	5120	21.3	1
28	5125	21.300424	0
28	5151	21.4	1
28	5156	21.400424	0
28	5182	21.5	1
28	5187	21.500424	0
28	5213	21.6	1
28	5218	21.600424	0
28	5244	21.7	1
28	5249	21.700424	0
28	5275	21.8	1
28	5280	21.800424	0
28	5306	21.9	1
28	5311	21.900424	0
28	5337	22	1
28	5342	22.000424	0
28	5368	22.1	1
28	5373	22.100424	0
28	5399	22.2	1
28	5404	22.200424	0
28	5430	22.3	1
28	5435	22.300424	0
28	5461	22.4	1
28	5466	22.400424	0
28	5492	22.5	1
28	5497	22.500424	0
28	5523	22.6	1
28	5528	22.600424	0
28	5554	22.7	1
28	5559	22.700424	0
28	5585	22.8	1
28	5590	22.800424	0
28	5616	22.9	1
28	5621	22.900424	0
28	5647	23	1
28	5652	23.000424	0
28	5678	23.1	1
28	5683	23.100424	0
28	5709	23.2	1
28	5714	23.200424	0
28	5740	23.3	1
28	5745	23.300424	0
28	5771	23.4	1
28	5776	23.400424	0
28	5802	23.5	1
28	5807	23.500424	0
28	5833	23.6	1
28	5838	23.600424	0
28	5864	23.7	1
28	5869	23.700424	0
28	5895	23.8	1
28	5900	23.800424	0
28	5926	23.9	1
28	5931	23.900424	0
28	5957	24	1
28	5962	24.000424	0
28	5988	24.1	1
28	5993	24.100424	0
28	6019	24.2	1
28	6024	24.200424	0
28	6050	24.3	1
28	6055	24.300424	0
28	6081	24.4	1
28	6086	24.400424	0
28	6112	24.5	1
28	6117	24.500424	0
28	6143	24.6	1
28	6148	24.600424	0
28	6174	24.7	1
28	6179	24.700424	0
28	6205	24.8	1
28	6210	24.800424	0
28	6236	24.9	1
28	6241	24.900424	0
17	125	5.2	1
17	128	5.2	0
17	156	5.3	1
17	159	5.3	0
17	187	5.4	1
17	190	5.4	0
17	218	5.5	1
17	221	5.5	0
17	249	5.6	1
17	252	5.6	0
17	280	5.7	1
17	283	5.7	0
17	311	5.8	1
17	314	5.8	0
17	342	5.9	1
17	345	5.9	0
17	373	6	1
17	376	6	0
17	404	6.1	1
17	407	6.1	0
17	435	6.2	1
17	438	6.2	0
17	466	6.3	1
17	469	6.3	0
17	497	6.4	1
17	500	6.4	0
17	528	6.5	1
17	531	6.5	0
17	559	6.6	1
[...]
66	4983	20.800424374719	512
66	5014	20.900424375289	512
66	5045	21.000424375944	512
66	5076	21.100424376711	512
66	5107	21.200424377614	512
66	5138	21.3004243786	512
66	5169	21.400424379701	512
66	5200	21.500424380918	512
66	5231	21.600424382225	512
66	5262	21.700424383665	512
66	5293	21.800424385297	512
66	5324	21.900424387172	512
66	5355	22.000424389191	512
66	5386	22.100424390906	512
66	5417	22.200424391675	512
66	5448	22.30042439263	512
66	5479	22.400424392107	512
66	5510	22.500424391031	512
66	5541	22.600424390023	512
66	5572	22.700424387292	512
66	5603	22.800424384805	512
66	5634	22.900424382567	512
66	5665	23.000424380067	512
66	5696	23.100424377743	512
66	5727	23.200424375627	512
66	5758	23.300424373722	512
66	5789	23.400424372038	512
66	5820	23.500424370574	512
66	5851	23.600424369336	512
66	5882	23.700424368327	512
66	5913	23.800424367546	512
66	5944	23.900424366996	512
66	5975	24.000424366676	512
66	6006	24.100424366589	512
66	6037	24.200424366733	512
66	6068	24.300424367112	512
66	6099	24.40042436772	512
66	6130	24.500424368561	512
66	6161	24.600424369632	512
66	6192	24.700424370928	512
66	6223	24.800424372453	512
66	6254	24.900424374197	512
69	147	5.200424415616	0.099999999076
69	178	5.300424414227	0.099999998611
69	209	5.400424412784	0.099999998557
69	240	5.500424411298	0.099999998514
69	271	5.600424409773	0.099999998475
69	302	5.700424408208	0.099999998435
69	333	5.800424406603	0.099999998395
69	364	5.900424404962	0.099999998359
69	395	6.000424403301	0.099999998339
69	426	6.100424401613	0.099999998312
69	457	6.200424399903	0.09999999829
69	488	6.300424398184	0.099999998281
69	519	6.40042439646	0.099999998276
69	550	6.500424394738	0.099999998278
69	581	6.600424393008	0.09999999827
69	612	6.700424391271	0.099999998263
69	643	6.800424389543	0.099999998272
69	674	6.900424387837	0.099999998294
69	705	7.000424386149	0.099999998312
69	736	7.100424384479	0.09999999833
69	767	7.200424382843	0.099999998364
69	798	7.300424381251	0.099999998408
69	829	7.400424379702	0.099999998451
69	860	7.50042437821	0.099999998508
69	891	7.600424376778	0.099999998568
69	922	7.700424375412	0.099999998634
69	953	7.800424374116	0.099999998704
69	984	7.900424372891	0.099999998775
69	1015	8.000424371751	0.09999999886
69	1046	8.100424370705	0.099999998954
69	1077	8.20042436976	0.099999999055
69	1108	8.300424368931	0.099999999171
69	1139	8.400424368222	0.099999999291
69	1170	8.500424367635	0.099999999413
69	1201	8.600424367175	0.09999999954
69	1232	8.700424366845	0.09999999967
69	1263	8.800424366647	0.099999999802
69	1294	8.900424366587	0.09999999994
69	1325	9.00042436667	0.100000000083
69	1356	9.100424366899	0.100000000229
69	1387	9.200424367278	0.100000000379
69	1418	9.300424367813	0.100000000535
69	1449	9.400424368509	0.100000000696
69	1480	9.500424369363	0.100000000854
69	1511	9.600424370379	0.100000001016
69	1542	9.700424371564	0.100000001185
69	1573	9.80042437292	0.100000001356
69	1604	9.900424374451	0.100000001531
69	1635	10.000424376157	0.100000001706
69	1666	10.100424378033	0.100000001876
69	1697	10.200424380082	0.100000002049
69	1728	10.300424382312	0.10000000223
69	1759	10.400424384687	0.100000002375
69	1790	10.500424386776	0.100000002089
69	1821	10.600424389086	0.10000000231
69	1852	10.70042439161	0.100000002524
69	1883	10.800424392485	0.100000000875
69	1914	10.900424393347	0.100000000862
69	1945	11.000424393759	0.100000000412
69	1976	11.100424392583	0.099999998824
69	2007	11.200424391606	0.099999999023
69	2038	11.300424389749	0.099999998143
69	2069	11.400424387571	0.099999997822
69	2100	11.500424385556	0.099999997985
69	2131	11.60042438383	0.099999998274
69	2162	11.700424382338	0.099999998508
69	2193	11.800424380962	0.099999998624
69	2224	11.900424379749	0.099999998787
69	2255	12.00042437863	0.099999998881
69	2286	12.100424377622	0.099999998992
69	2317	12.200424376724	0.099999999102
69	2348	12.300424375949	0.099999999225
69	2379	12.400424375262	0.099999999313
69	2410	12.500424374722	0.09999999946
69	2441	12.600424374298	0.099999999576
69	2472	12.700424373988	0.09999999969
69	2503	12.800424373775	0.099999999787
69	2534	12.90042437369	0.099999999915
69	2565	13.000424373716	0.100000000026
69	2596	13.10042437386	0.100000000144
69	2627	13.200424374109	0.100000000249
69	2658	13.300424374472	0.100000000363
69	2689	13.400424374962	0.10000000049
69	2720	13.500424375539	0.100000000577
69	2751	13.600424376238	0.100000000699
69	2782	13.700424377022	0.100000000784
69	2813	13.800424377936	0.100000000914
69	2844	13.900424378946	0.10000000101
69	2875	14.000424380098	0.100000001152
69	2906	14.100424381346	0.100000001248
69	2937	14.20042438272	0.100000001374
69	2968	14.300424384162	0.100000001442
69	2999	14.400424385889	0.100000001727
69	3030	14.500424387797	0.100000001908
69	3061	14.600424389885	0.100000002088
69	3092	14.700424391116	0.100000001231
69	3123	14.800424391959	0.100000000843
69	3154	14.900424392951	0.100000000992
69	3185	15.000424391722	0.099999998771
69	3216	15.100424390721	0.099999998999
69	3247	15.200424389091	0.09999999837
69	3278	15.300424386441	0.09999999735
69	3309	15.400424384038	0.099999997597
69	3340	15.500424381733	0.099999997695
69	3371	15.600424379264	0.099999997531
69	3402	15.700424376997	0.099999997733
69	3433	15.800424374951	0.099999997954
69	3464	15.900424373127	0.099999998176
69	3495	16.000424371519	0.099999998392
69	3526	16.100424370133	0.099999998614
69	3557	16.200424368968	0.099999998835
69	3588	16.300424368039	0.099999999071
69	3619	16.400424367336	0.099999999297
69	3650	16.500424366863	0.099999999527
69	3681	16.600424366621	0.099999999758
69	3712	16.700424366611	0.09999999999
69	3743	16.800424366835	0.100000000224
69	3774	16.90042436729	0.100000000455
69	3805	17.000424367979	0.100000000689
69	3836	17.100424368894	0.100000000915
69	3867	17.200424370038	0.100000001144
69	3898	17.300424371403	0.100000001365
69	3929	17.400424372997	0.100000001594
69	3960	17.500424374804	0.100000001807
69	3991	17.600424376825	0.100000002021
69	4022	17.70042437906	0.100000002235
69	4053	17.800424381505	0.100000002445
69	4084	17.900424383835	0.10000000233
69	4115	18.000424386214	0.100000002379
69	4146	18.10042438883	0.100000002616
69	4177	18.200424390628	0.100000001798
69	4208	18.300424391599	0.100000000971
69	4239	18.400424392816	0.100000001217
69	4270	18.500424391996	0.09999999918
69	4301	18.600424391148	0.099999999152
69	4332	18.700424389987	0.099999998839
69	4363	18.800424387921	0.099999997934
69	4394	18.900424385974	0.099999998053
69	4425	19.000424384197	0.099999998223
69	4456	19.100424382733	0.099999998536
69	4487	19.200424381381	0.099999998648
69	4518	19.300424380134	0.099999998753
69	4549	19.400424379011	0.099999998877
69	4580	19.500424377976	0.099999998965
69	4611	19.60042437706	0.099999999084
69	4642	19.700424376242	0.099999999182
69	4673	19.800424375537	0.099999999295
69	4704	19.900424374943	0.099999999406
69	4735	20.000424374469	0.099999999526
69	4766	20.100424374123	0.099999999654
69	4797	20.200424373882	0.099999999759
69	4828	20.300424373726	0.099999999844
69	4859	20.400424373686	0.09999999996
69	4890	20.50042437376	0.100000000074
69	4921	20.600424373979	0.100000000219
69	4952	20.700424374288	0.100000000309
69	4983	20.800424374719	0.100000000431
69	5014	20.900424375289	0.10000000057
69	5045	21.000424375944	0.100000000655
69	5076	21.100424376711	0.100000000767
69	5107	21.200424377614	0.100000000903
69	5138	21.3004243786	0.100000000986
69	5169	21.400424379701	0.100000001101
69	5200	21.500424380918	0.100000001217
69	5231	21.600424382225	0.100000001307
69	5262	21.700424383665	0.10000000144
69	5293	21.800424385297	0.100000001632
69	5324	21.900424387172	0.100000001875
69	5355	22.000424389191	0.100000002019
69	5386	22.100424390906	0.100000001715
69	5417	22.200424391675	0.100000000769
69	5448	22.30042439263	0.100000000955
69	5479	22.400424392107	0.099999999477
69	5510	22.500424391031	0.099999998924
69	5541	22.600424390023	0.099999998992
69	5572	22.700424387292	0.099999997269
69	5603	22.800424384805	0.099999997513
69	5634	22.900424382567	0.099999997762
69	5665	23.000424380067	0.0999999975
69	5696	23.100424377743	0.099999997676
69	5727	23.200424375627	0.099999997884
69	5758	23.300424373722	0.099999998095
69	5789	23.400424372038	0.099999998316
69	5820	23.500424370574	0.099999998536
69	5851	23.600424369336	0.099999998762
69	5882	23.700424368327	0.099999998991
69	5913	23.800424367546	0.099999999219
69	5944	23.900424366996	0.09999999945
69	5975	24.000424366676	0.09999999968
69	6006	24.100424366589	0.099999999913
69	6037	24.200424366733	0.100000000144
69	6068	24.300424367112	0.100000000379
69	6099	24.40042436772	0.100000000608
69	6130	24.500424368561	0.100000000841
69	6161	24.600424369632	0.100000001071
69	6192	24.700424370928	0.100000001296
69	6223	24.800424372453	0.100000001525
69	6254	24.900424374197	0.100000001744
68	116	5.10042441654	512
68	147	5.200424415616	1024
68	178	5.300424414227	1536
68	209	5.400424412784	2048
68	240	5.500424411298	2560
68	271	5.600424409773	3072
68	302	5.700424408208	3584
68	333	5.800424406603	4096
68	364	5.900424404962	4608
68	395	6.000424403301	5120
68	426	6.100424401613	5632
68	457	6.200424399903	6144
68	488	6.300424398184	6656
68	519	6.40042439646	7168
68	550	6.500424394738	7680
68	581	6.600424393008	8192
68	612	6.700424391271	8704
68	643	6.800424389543	9216
68	674	6.900424387837	9728
68	705	7.000424386149	10240
68	736	7.100424384479	10752
68	767	7.200424382843	11264
68	798	7.300424381251	11776
68	829	7.400424379702	12288
68	860	7.50042437821	12800
68	891	7.600424376778	13312
68	922	7.700424375412	13824
68	953	7.800424374116	14336
68	984	7.900424372891	14848
68	1015	8.000424371751	15360
68	1046	8.100424370705	15872
68	1077	8.20042436976	16384
68	1108	8.300424368931	16896
68	1139	8.400424368222	17408
68	1170	8.500424367635	17920
68	1201	8.600424367175	18432
68	1232	8.700424366845	18944
68	1263	8.800424366647	19456
68	1294	8.900424366587	19968
68	1325	9.00042436667	20480
68	1356	9.100424366899	20992
68	1387	9.200424367278	21504
68	1418	9.300424367813	22016
68	1449	9.400424368509	22528
68	1480	9.500424369363	23040
68	1511	9.600424370379	23552
68	1542	9.700424371564	24064
68	1573	9.80042437292	24576
68	1604	9.900424374451	25088
68	1635	10.000424376157	25600
68	1666	10.100424378033	26112
68	1697	10.200424380082	26624
68	1728	10.300424382312	27136
68	1759	10.400424384687	27648
68	1790	10.500424386776	28160
68	1821	10.600424389086	28672
68	1852	10.70042439161	29184
68	1883	10.800424392485	29696
68	1914	10.900424393347	30208
68	1945	11.000424393759	30720
68	1976	11.100424392583	31232
68	2007	11.200424391606	31744
68	2038	11.300424389749	32256
68	2069	11.400424387571	32768
68	2100	11.500424385556	33280
68	2131	11.60042438383	33792
68	2162	11.700424382338	34304
68	2193	11.800424380962	34816
68	2224	11.900424379749	35328
68	2255	12.00042437863	35840
68	2286	12.100424377622	36352
68	2317	12.200424376724	36864
68	2348	12.300424375949	37376
68	2379	12.400424375262	37888
68	2410	12.500424374722	38400
68	2441	12.600424374298	38912
68	2472	12.700424373988	39424
68	2503	12.800424373775	39936
68	2534	12.90042437369	40448
68	2565	13.000424373716	40960
68	2596	13.10042437386	41472
68	2627	13.200424374109	41984
68	2658	13.300424374472	42496
68	2689	13.400424374962	43008
68	2720	13.500424375539	43520
68	2751	13.600424376238	44032
68	2782	13.700424377022	44544
68	2813	13.800424377936	45056
68	2844	13.900424378946	45568
68	2875	14.000424380098	46080
68	2906	14.100424381346	46592
68	2937	14.20042438272	47104
68	2968	14.300424384162	47616
68	2999	14.400424385889	48128
68	3030	14.500424387797	48640
68	3061	14.600424389885	49152
68	3092	14.700424391116	49664
68	3123	14.800424391959	50176
68	3154	14.900424392951	50688
68	3185	15.000424391722	51200
68	3216	15.100424390721	51712
68	3247	15.200424389091	52224
68	3278	15.300424386441	52736
68	3309	15.400424384038	53248
68	3340	15.500424381733	53760
68	3371	15.600424379264	54272
68	3402	15.700424376997	54784
68	3433	15.800424374951	55296
68	3464	15.900424373127	55808
68	3495	16.000424371519	56320
68	3526	16.100424370133	56832
68	3557	16.200424368968	57344
68	3588	16.300424368039	57856
68	3619	16.400424367336	58368
68	3650	16.500424366863	58880
68	3681	16.600424366621	59392
68	3712	16.700424366611	59904
68	3743	16.800424366835	60416
68	3774	16.90042436729	60928
68	3805	17.000424367979	61440
68	3836	17.100424368894	61952
68	3867	17.200424370038	62464
68	3898	17.300424371403	62976
68	3929	17.400424372997	63488
68	3960	17.500424374804	64000
68	3991	17.600424376825	64512
68	4022	17.70042437906	65024
68	4053	17.800424381505	65536
68	4084	17.900424383835	66048
68	4115	18.000424386214	66560
68	4146	18.10042438883	67072
68	4177	18.200424390628	67584
68	4208	18.300424391599	68096
68	4239	18.400424392816	68608
68	4270	18.500424391996	69120
68	4301	18.600424391148	69632
68	4332	18.700424389987	70144
68	4363	18.800424387921	70656
68	4394	18.900424385974	71168
68	4425	19.000424384197	71680
68	4456	19.100424382733	72192
68	4487	19.200424381381	72704
68	4518	19.300424380134	73216
68	4549	19.400424379011	73728
68	4580	19.500424377976	74240
68	4611	19.60042437706	74752
68	4642	19.700424376242	75264
68	4673	19.800424375537	75776
68	4704	19.900424374943	76288
68	4735	20.000424374469	76800
68	4766	20.100424374123	77312
68	4797	20.200424373882	77824
68	4828	20.300424373726	78336
68	4859	20.400424373686	78848
68	4890	20.50042437376	79360
68	4921	20.600424373979	79872
68	4952	20.700424374288	80384
68	4983	20.800424374719	80896
68	5014	20.900424375289	81408
68	5045	21.000424375944	81920
68	5076	21.100424376711	82432
68	5107	21.200424377614	82944
68	5138	21.3004243786	83456
68	5169	21.400424379701	83968
68	5200	21.500424380918	84480
68	5231	21.600424382225	84992
68	5262	21.700424383665	85504
68	5293	21.800424385297	86016
68	5324	21.900424387172	86528
68	5355	22.000424389191	87040
68	5386	22.100424390906	87552
68	5417	22.200424391675	88064
68	5448	22.30042439263	88576
68	5479	22.400424392107	89088
68	5510	22.500424391031	89600
68	5541	22.600424390023	90112
68	5572	22.700424387292	90624
68	5603	22.800424384805	91136
68	5634	22.900424382567	91648
68	5665	23.000424380067	92160
68	5696	23.100424377743	92672
68	5727	23.200424375627	93184
68	5758	23.300424373722	93696
68	5789	23.400424372038	94208
68	5820	23.500424370574	94720
68	5851	23.600424369336	95232
68	5882	23.700424368327	95744
68	5913	23.800424367546	96256
68	5944	23.900424366996	96768
68	5975	24.000424366676	97280
68	6006	24.100424366589	97792
68	6037	24.200424366733	98304
68	6068	24.300424367112	98816
68	6099	24.40042436772	99328
68	6130	24.500424368561	99840
68	6161	24.600424369632	100352
68	6192	24.700424370928	100864
68	6223	24.800424372453	101376
68	6254	24.900424374197	101888
67	116	5.10042441654	1
67	147	5.200424415616	2
67	178	5.300424414227	3
67	209	5.400424412784	4
67	240	5.500424411298	5
67	271	5.600424409773	6
67	302	5.700424408208	7
67	333	5.800424406603	8
67	364	5.900424404962	9
67	395	6.000424403301	10
67	426	6.100424401613	11
67	457	6.200424399903	12
67	488	6.300424398184	13
67	519	6.40042439646	14
67	550	6.500424394738	15
67	581	6.600424393008	16
67	612	6.700424391271	17
67	643	6.800424389543	18
67	674	6.900424387837	19
67	705	7.000424386149	20
67	736	7.100424384479	21
67	767	7.200424382843	22
67	798	7.300424381251	23
67	829	7.400424379702	24
67	860	7.50042437821	25
67	891	7.600424376778	26
67	922	7.700424375412	27
67	953	7.800424374116	28
67	984	7.900424372891	29
67	1015	8.000424371751	30
67	1046	8.100424370705	31
67	1077	8.20042436976	32
67	1108	8.300424368931	33
67	1139	8.400424368222	34
67	1170	8.500424367635	35
67	1201	8.600424367175	36
67	1232	8.700424366845	37
67	1263	8.800424366647	38
67	1294	8.900424366587	39
67	1325	9.00042436667	40
67	1356	9.100424366899	41
67	1387	9.200424367278	42
67	1418	9.300424367813	43
67	1449	9.400424368509	44
67	1480	9.500424369363	45
67	1511	9.600424370379	46
67	1542	9.700424371564	47
67	1573	9.80042437292	48
67	1604	9.900424374451	49
67	1635	10.000424376157	50
67	1666	10.100424378033	51
67	1697	10.200424380082	52
67	1728	10.300424382312	53
67	1759	10.400424384687	54
67	1790	10.500424386776	55
67	1821	10.600424389086	56
67	1852	10.70042439161	57
67	1883	10.800424392485	58
67	1914	10.900424393347	59
67	1945	11.000424393759	60
67	1976	11.100424392583	61
67	2007	11.200424391606	62
67	2038	11.300424389749	63
67	2069	11.400424387571	64
67	2100	11.500424385556	65
67	2131	11.60042438383	66
67	2162	11.700424382338	67
67	2193	11.800424380962	68
67	2224	11.900424379749	69
67	2255	12.00042437863	70
67	2286	12.100424377622	71
67	2317	12.200424376724	72
67	2348	12.300424375949	73
67	2379	12.400424375262	74
67	2410	12.500424374722	75
67	2441	12.600424374298	76
67	2472	12.700424373988	77
67	2503	12.800424373775	78
67	2534	12.90042437369	79
67	2565	13.000424373716	80
67	2596	13.10042437386	81
67	2627	13.200424374109	82
67	2658	13.300424374472	83
67	2689	13.400424374962	84
67	2720	13.500424375539	85
67	2751	13.600424376238	86
67	2782	13.700424377022	87
67	2813	13.800424377936	88
67	2844	13.900424378946	89
67	2875	14.000424380098	90
67	2906	14.100424381346	91
67	2937	14.20042438272	92
67	2968	14.300424384162	93
67	2999	14.400424385889	94
67	3030	14.500424387797	95
67	3061	14.600424389885	96
67	3092	14.700424391116	97
67	3123	14.800424391959	98
67	3154	14.900424392951	99
67	3185	15.000424391722	100
67	3216	15.100424390721	101
67	3247	15.200424389091	102
67	3278	15.300424386441	103
67	3309	15.400424384038	104
67	3340	15.500424381733	105
67	3371	15.600424379264	106
67	3402	15.700424376997	107
67	3433	15.800424374951	108
67	3464	15.900424373127	109
67	3495	16.000424371519	110
67	3526	16.100424370133	111
67	3557	16.200424368968	112
67	3588	16.300424368039	113
67	3619	16.400424367336	114
67	3650	16.500424366863	115
67	3681	16.600424366621	116
67	3712	16.700424366611	117
67	3743	16.800424366835	118
67	3774	16.90042436729	119
67	3805	17.000424367979	120
67	3836	17.100424368894	121
67	3867	17.200424370038	122
67	3898	17.300424371403	123
67	3929	17.400424372997	124
67	3960	17.500424374804	125
67	3991	17.600424376825	126
67	4022	17.70042437906	127
67	4053	17.800424381505	128
67	4084	17.900424383835	129
67	4115	18.000424386214	130
67	4146	18.10042438883	131
67	4177	18.200424390628	132
67	4208	18.300424391599	133
67	4239	18.400424392816	134
67	4270	18.500424391996	135
67	4301	18.600424391148	136
67	4332	18.700424389987	137
67	4363	18.800424387921	138
67	4394	18.900424385974	139
67	4425	19.000424384197	140
67	4456	19.100424382733	141
67	4487	19.200424381381	142
67	4518	19.300424380134	143
67	4549	19.400424379011	144
67	4580	19.500424377976	145
67	4611	19.60042437706	146
67	4642	19.700424376242	147
67	4673	19.800424375537	148
67	4704	19.900424374943	149
67	4735	20.000424374469	150
67	4766	20.100424374123	151
67	4797	20.200424373882	152
67	4828	20.300424373726	153
67	4859	20.400424373686	154
67	4890	20.50042437376	155
67	4921	20.600424373979	156
67	4952	20.700424374288	157
67	4983	20.800424374719	158
67	5014	20.900424375289	159
67	5045	21.000424375944	160
67	5076	21.100424376711	161
67	5107	21.200424377614	162
67	5138	21.3004243786	163
67	5169	21.400424379701	164
67	5200	21.500424380918	165
67	5231	21.600424382225	166
67	5262	21.700424383665	167
67	5293	21.800424385297	168
67	5324	21.900424387172	169
67	5355	22.000424389191	170
67	5386	22.100424390906	171
67	5417	22.200424391675	172
67	5448	22.30042439263	173
67	5479	22.400424392107	174
67	5510	22.500424391031	175
67	5541	22.600424390023	176
67	5572	22.700424387292	177
67	5603	22.800424384805	178
67	5634	22.900424382567	179
67	5665	23.000424380067	180
67	5696	23.100424377743	181
67	5727	23.200424375627	182
67	5758	23.300424373722	183
67	5789	23.400424372038	184
67	5820	23.500424370574	185
67	5851	23.600424369336	186
67	5882	23.700424368327	187
67	5913	23.800424367546	188
67	5944	23.900424366996	189
67	5975	24.000424366676	190
67	6006	24.100424366589	191
67	6037	24.200424366733	192
67	6068	24.300424367112	193
67	6099	24.40042436772	194
67	6130	24.500424368561	195
67	6161	24.600424369632	196
67	6192	24.700424370928	197
67	6223	24.800424372453	198
67	6254	24.900424374197	199

